*Heading
** Job name: A3_1 Model name: A3
** Generated by: Abaqus/CAE 2023
*Preprint, echo=NO, model=NO, history=NO, contact=NO
**
** PARTS
**
*Part, name=tanpian_abaqus-1
*Node
      1,  -2.62905669,   17.0876465,   10.3724661
      2,   -10.698945,   17.0876465,  0.180464864
      3,   -1.5680002,   13.1754141,   1.24152136
      4,   -10.698945,   17.8097725,  0.180464864
      5,  -2.62905669,   17.8097725,   10.3724661
      6,   -1.5680002,   13.6987228,   1.24152136
      7,  -14.2157993,   27.3440819,   2.96506238
      8,  -13.8234272,   27.3440819,   2.65438747
      9,  -6.14591074,   27.3440819,   13.1570635
     10,  -5.75353909,   27.3440819,   12.8463888
     11,  -8.64009953,   58.0078125,   10.0298891
     12,  -11.7439032,   58.0078125,   6.10988855
     13,   -14.172492,   28.6657181,   3.04266119
     14,  -6.21151114,   28.6657181,   13.0971165
     15,  -8.64009953,   94.0078125,   10.0298891
     16,  -11.7439032,   94.0078125,   6.10988855
     17,   -11.351903,   94.0078125,   5.79950809
     18,  -8.24809933,   94.0078125,   9.71950912
     19,  -8.24809933,   58.0078125,   9.71950912
     20,  -5.81951094,   28.6657181,   12.7867365
** ... 6625 like lines cut
*Element, type=C3D8R
  1,  768,  769, 3644, 3578,   44,   45,  667,  666
  2,  769,  770, 3645, 3644,   45,   46,  668,  667
  3,  770,  771, 3646, 3645,   46,   47,  669,  668
  4,  771,   61,  735, 3646,   47,    1,   48,  669
  5, 3578, 3644, 3647, 3579,  666,  667,  671,  670
  6, 3644, 3645, 3648, 3647,  667,  668,  672,  671
  7, 3645, 3646, 3649, 3648,  668,  669,  673,  672
  8, 3646,  735,  736, 3649,  669,   48,   49,  673
  9, 3579, 3647, 3650, 3580,  670,  671,  675,  674
 10, 3647, 3648, 3651, 3650,  671,  672,  676,  675
 11, 3648, 3649, 3652, 3651,  672,  673,  677,  676
 12, 3649,  736,  737, 3652,  673,   49,   50,  677
 13, 3580, 3650, 3653, 3581,  674,  675,  679,  678
 14, 3650, 3651, 3654, 3653,  675,  676,  680,  679
 15, 3651, 3652, 3655, 3654,  676,  677,  681,  680
 16, 3652,  737,  738, 3655,  677,   50,   51,  681
 17, 3581, 3653, 3656, 3582,  678,  679,  683,  682
 18, 3653, 3654, 3657, 3656,  679,  680,  684,  683
 19, 3654, 3655, 3658, 3657,  680,  681,  685,  684
 20, 3655,  738,  739, 3658,  681,   51,   52,  685
** ... 4796 like lines cut
*Nset, nset=Set-B-ALL, generate
    1,  6645,     1
*Elset, elset=Set-B-ALL, generate
    1,  4816,     1
** Section: Section-1
*Solid Section, elset=Set-B-ALL, controls=EC-1, material=steel_elas-plastic
,
*End Part
**  
*Part, name=tanpian_abaqus-6_1
*Node
      1,         -9.5,           0.,          85.
      2,  -11.5384617,  -4.80769253,          85.
      3,  -11.5384617,           0.,          85.
      4,  -4.80769253,  -11.5384617,          85.
      5,           0.,  -11.5384617,          85.
      6,           0.,         -9.5,          85.
      7,           0.,  -11.5384617,           8.
      8,  -4.80769253,  -11.5384617,           8.
      9,           0.,  -10.2238998,           0.
     10,  -7.19179153,  -10.2238998,           0.
     11,           0.,         -9.5,           0.
     12,         -9.5,           0.,           0.
     13,  -11.5384617,           0.,           8.
     14,  -11.5384617,  -4.80769253,           8.
     15,  -10.2238998,  -7.19179153,           0.
     16,  -10.2238998,           0.,           0.
     17,           0.,          9.5,          85.
     18,  -4.80769253,   11.5384617,          85.
     19,           0.,   11.5384617,          85.
     20,  -11.5384617,   4.80769253,          85.
** ... 5260 like lines cut
*Element, type=C3D8R
  1,   58,  858,  857,   59, 1445, 3770, 3769, 1444
  2,  858,   51,   50,  857, 3770,  991,  990, 3769
  3,    2,  859,  858,   58,  320, 3771, 3770, 1445
  4,  859,   52,   51,  858, 3771,  992,  991, 3770
  5,   57,  860,  859,    2, 1369, 3772, 3771,  320
  6,  860,   53,   52,  859, 3772,  993,  992, 3771
  7,   56,  861,  860,   57, 1368, 3773, 3772, 1369
  8,  861,   54,   53,  860, 3773,  994,  993, 3772
  9,    3,   55,  861,   56,  243, 1570, 3773, 1368
 10,   55,    1,   54,  861, 1570,  242,  994, 3773
 11,   49,  862,  857,   50,  998, 3774, 3769,  990
 12,  862,   60,   59,  857, 3774, 1446, 1444, 3769
 13,   48,  863,  862,   49,  997, 3775, 3774,  998
 14,  863,    4,   60,  862, 3775,  101, 1446, 3774
 15,   47,  864,  863,   48,  996, 3776, 3775,  997
 16,  864,   61,    4,  863, 3776,  866,  101, 3775
 17,   46,  865,  864,   47,  995, 3777, 3776,  996
 18,  865,   62,   61,  864, 3777,  867,  866, 3776
 19,    6,   45,  865,   46,  149,  948, 3777,  995
 20,   45,    5,   62,  865,  948,  100,  867, 3777
** ... 3420 like lines cut
*Node
   5281,           0., 5.81707235e-16,          85.
*Nset, nset=tanpian_abaqus-6_1-RefPt_, internal
5281, 
*Nset, nset=Set-TN-ALL, generate
    1,  5280,     1
*Elset, elset=Set-TN-ALL, generate
    1,  3440,     1
*Nset, nset=Set-TN-RP
 5281,
** Section: Section-1
*Solid Section, elset=Set-TN-ALL, controls=EC-2, material=steel_elas-plastic
,
*End Part
**  
*Part, name=tanpian_abaqus-7
*Node
      1,   15.7564659,   20.4928894,  -4.89732409
      2,   14.3240595,   20.4928894,  -4.45211267
      3,   4.45211267,   20.4928894,   14.3240595
      4,   4.89732409,   20.4928894,   15.7564659
      5,   10.6765242,   10.4928894,  -3.31840897
      6,   3.31840897,   10.4928894,   10.6765242
      7,   3.89542198,   10.4928894,   12.5329838
      8,   12.5329838,   10.4928894,  -3.89542198
      9,  -4.89732409,   20.4928894,  -15.7564659
     10,  -4.45211267,   20.4928894,  -14.3240595
     11,  -3.31840897,   10.4928894,  -10.6765242
     12,  -3.89542198,   10.4928894,  -12.5329838
     13,  -15.7564659,   20.4928894,   4.89732409
     14,  -14.3240595,   20.4928894,   4.45211267
     15,  -12.5329838,   10.4928894,   3.89542198
     16,  -10.6765242,   10.4928894,   3.31840897
     17,   15.7564659,   99.8622055,  -4.89732409
     18,   14.3240595,   99.8622055,  -4.45211267
     19,   4.45211267,   99.8622055,   14.3240595
     20,   4.89732409,   99.8622055,   15.7564659
** ... 4028 like lines cut
*Element, type=C3D8R
 1,  72,  77, 649, 609,   1,   2,  25,  44
 2, 609, 649, 650, 610,  44,  25,  26,  43
 3, 610, 650, 651, 611,  43,  26,  27,  42
 4, 611, 651, 652, 612,  42,  27,  28,  41
 5, 612, 652, 653, 613,  41,  28,  29,  40
 6, 613, 653, 654, 614,  40,  29,  30,  39
 7, 614, 654, 655, 615,  39,  30,  31,  38
 8, 615, 655, 656, 616,  38,  31,  32,  37
 9, 616, 656, 657, 617,  37,  32,  33,  36
10, 617, 657, 658, 618,  36,  33,  34,  35
11, 618, 658,  76,  65,  35,  34,   3,   4
12,  71,  78, 659, 619,  72,  77, 649, 609
13, 619, 659, 660, 620, 609, 649, 650, 610
14, 620, 660, 661, 621, 610, 650, 651, 611
15, 621, 661, 662, 622, 611, 651, 652, 612
16, 622, 662, 663, 623, 612, 652, 653, 613
17, 623, 663, 664, 624, 613, 653, 654, 614
18, 624, 664, 665, 625, 614, 654, 655, 615
19, 625, 665, 666, 626, 615, 655, 656, 616
20, 626, 666, 667, 627, 616, 656, 657, 617
** ... 1960 like lines cut
*Node
   4049, -1.42108547e-14,   99.8622055, 8.8817842e-15
*Nset, nset=tanpian_abaqus-7-RefPt_, internal
4049, 
*Nset, nset=Set-TW-RP
 4049,
*Nset, nset=Set-TW-ALL, generate
    1,  4048,     1
*Elset, elset=Set-TW-ALL, generate
    1,  1980,     1
** Section: Section-1
*Solid Section, elset=Set-TW-ALL, controls=EC-2, material=steel_elas-plastic
,
*End Part
**  
**
** ASSEMBLY
**
*Assembly, name=Assembly
**  
*Instance, name=tanpian_abaqus-1-1, part=tanpian_abaqus-1
*End Instance
**  
*Instance, name=tanpian_abaqus-7-1, part=tanpian_abaqus-7
*End Instance
**  
*Instance, name=tanpian_abaqus-1-1-rad-2, part=tanpian_abaqus-1
          0.,           0.,           0.
          0.,           0.,           0.,           0., 1.00000001268805,           0., 89.9999992730282
*End Instance
**  
*Instance, name=tanpian_abaqus-1-1-rad-3, part=tanpian_abaqus-1
          0.,           0.,           0.
          0.,           0.,           0.,           0.,           1.,           0.,         180.
*End Instance
**  
*Instance, name=tanpian_abaqus-1-1-rad-4, part=tanpian_abaqus-1
          0.,           0.,           0.
          0.,           0.,           0.,           0., -1.00000001268805,           0., 89.9999992730282
*End Instance
**  
*Instance, name=tanpian_abaqus-6_1-1, part=tanpian_abaqus-6_1
          0.,    21.584009,           0.
          0.,    21.584009,           0., 0.238919272554826, 22.2706375638781, 0.686628563878054, 206.874340446581
*End Instance
**  
*Node
      1,           0.,         120.,           0.
*Nset, nset=Set-BAN-RP
 1,
*Nset, nset=Set-KONG, instance=tanpian_abaqus-1-1
   23,   24,   25,   26,   31,   32,   33,   34,  492,  493,  494,  495,  496,  497,  498,  499
  500,  501,  502,  503,  504,  505,  506,  507,  508,  509,  510,  511,  512,  513,  514,  515
  516,  517,  518,  519,  555,  556,  557,  558,  559,  560,  567,  568,  569,  570,  571,  572
  608,  609,  610,  611,  612,  613,  614,  615,  616,  617,  618,  619,  620,  621,  622,  623
  624,  625,  626,  627,  628,  629,  630,  631,  632,  633,  634,  635, 3296, 3297, 3298, 3299
 3300, 3301, 3302, 3303, 3304, 3305, 3306, 3307, 3308, 3309, 3310, 3311, 3312, 3313, 3314, 3315
 3316, 3317, 3318, 3319, 3320, 3321, 3322, 3323, 3324, 3325, 3326, 3327, 3328, 3329, 3330, 3331
 3332, 3333, 3334, 3335, 3336, 3337, 3443, 3444, 3445, 3446, 3447, 3448, 3449, 3450, 3451, 3452
 3453, 3454, 3455, 3456, 3457, 3458, 3459, 3460, 3461, 3462, 3463, 3464, 3465, 3466, 3467, 3468
 3469, 3470, 3471, 3472, 3473, 3474, 3475, 3476, 3477, 3478, 3479, 3480, 3481, 3482, 3483, 3484
*Nset, nset=Set-KONG, instance=tanpian_abaqus-1-1-rad-2
   23,   24,   25,   26,   31,   32,   33,   34,  492,  493,  494,  495,  496,  497,  498,  499
  500,  501,  502,  503,  504,  505,  506,  507,  508,  509,  510,  511,  512,  513,  514,  515
  516,  517,  518,  519,  555,  556,  557,  558,  559,  560,  567,  568,  569,  570,  571,  572
  608,  609,  610,  611,  612,  613,  614,  615,  616,  617,  618,  619,  620,  621,  622,  623
  624,  625,  626,  627,  628,  629,  630,  631,  632,  633,  634,  635, 3296, 3297, 3298, 3299
 3300, 3301, 3302, 3303, 3304, 3305, 3306, 3307, 3308, 3309, 3310, 3311, 3312, 3313, 3314, 3315
 3316, 3317, 3318, 3319, 3320, 3321, 3322, 3323, 3324, 3325, 3326, 3327, 3328, 3329, 3330, 3331
 3332, 3333, 3334, 3335, 3336, 3337, 3443, 3444, 3445, 3446, 3447, 3448, 3449, 3450, 3451, 3452
 3453, 3454, 3455, 3456, 3457, 3458, 3459, 3460, 3461, 3462, 3463, 3464, 3465, 3466, 3467, 3468
 3469, 3470, 3471, 3472, 3473, 3474, 3475, 3476, 3477, 3478, 3479, 3480, 3481, 3482, 3483, 3484
*Nset, nset=Set-KONG, instance=tanpian_abaqus-1-1-rad-3
   23,   24,   25,   26,   31,   32,   33,   34,  492,  493,  494,  495,  496,  497,  498,  499
  500,  501,  502,  503,  504,  505,  506,  507,  508,  509,  510,  511,  512,  513,  514,  515
  516,  517,  518,  519,  555,  556,  557,  558,  559,  560,  567,  568,  569,  570,  571,  572
  608,  609,  610,  611,  612,  613,  614,  615,  616,  617,  618,  619,  620,  621,  622,  623
  624,  625,  626,  627,  628,  629,  630,  631,  632,  633,  634,  635, 3296, 3297, 3298, 3299
 3300, 3301, 3302, 3303, 3304, 3305, 3306, 3307, 3308, 3309, 3310, 3311, 3312, 3313, 3314, 3315
 3316, 3317, 3318, 3319, 3320, 3321, 3322, 3323, 3324, 3325, 3326, 3327, 3328, 3329, 3330, 3331
 3332, 3333, 3334, 3335, 3336, 3337, 3443, 3444, 3445, 3446, 3447, 3448, 3449, 3450, 3451, 3452
 3453, 3454, 3455, 3456, 3457, 3458, 3459, 3460, 3461, 3462, 3463, 3464, 3465, 3466, 3467, 3468
 3469, 3470, 3471, 3472, 3473, 3474, 3475, 3476, 3477, 3478, 3479, 3480, 3481, 3482, 3483, 3484
*Nset, nset=Set-KONG, instance=tanpian_abaqus-1-1-rad-4
   23,   24,   25,   26,   31,   32,   33,   34,  492,  493,  494,  495,  496,  497,  498,  499
  500,  501,  502,  503,  504,  505,  506,  507,  508,  509,  510,  511,  512,  513,  514,  515
  516,  517,  518,  519,  555,  556,  557,  558,  559,  560,  567,  568,  569,  570,  571,  572
  608,  609,  610,  611,  612,  613,  614,  615,  616,  617,  618,  619,  620,  621,  622,  623
  624,  625,  626,  627,  628,  629,  630,  631,  632,  633,  634,  635, 3296, 3297, 3298, 3299
 3300, 3301, 3302, 3303, 3304, 3305, 3306, 3307, 3308, 3309, 3310, 3311, 3312, 3313, 3314, 3315
 3316, 3317, 3318, 3319, 3320, 3321, 3322, 3323, 3324, 3325, 3326, 3327, 3328, 3329, 3330, 3331
 3332, 3333, 3334, 3335, 3336, 3337, 3443, 3444, 3445, 3446, 3447, 3448, 3449, 3450, 3451, 3452
 3453, 3454, 3455, 3456, 3457, 3458, 3459, 3460, 3461, 3462, 3463, 3464, 3465, 3466, 3467, 3468
 3469, 3470, 3471, 3472, 3473, 3474, 3475, 3476, 3477, 3478, 3479, 3480, 3481, 3482, 3483, 3484
*Elset, elset=Set-KONG, instance=tanpian_abaqus-1-1
 4073, 4074, 4085, 4098, 4099, 4100, 4101, 4102, 4110, 4111, 4112, 4120, 4121, 4122, 4123, 4124
 4131, 4133, 4134, 4135, 4146, 4147, 4148, 4149, 4154, 4155, 4156, 4157, 4166, 4167, 4179, 4180
 4221, 4222, 4233, 4246, 4247, 4248, 4249, 4250, 4258, 4259, 4260, 4268, 4269, 4270, 4271, 4272
 4279, 4281, 4282, 4283, 4294, 4295, 4296, 4297, 4302, 4303, 4304, 4305, 4314, 4315, 4327, 4328
 4369, 4370, 4381, 4394, 4395, 4396, 4397, 4398, 4406, 4407, 4408, 4416, 4417, 4418, 4419, 4420
 4427, 4429, 4430, 4431, 4442, 4443, 4444, 4445, 4450, 4451, 4452, 4453, 4462, 4463, 4475, 4476
 4517, 4518, 4529, 4542, 4543, 4544, 4545, 4546, 4554, 4555, 4556, 4564, 4565, 4566, 4567, 4568
 4575, 4577, 4578, 4579, 4590, 4591, 4592, 4593, 4598, 4599, 4600, 4601, 4610, 4611, 4623, 4624
*Elset, elset=Set-KONG, instance=tanpian_abaqus-1-1-rad-2
 4073, 4074, 4085, 4098, 4099, 4100, 4101, 4102, 4110, 4111, 4112, 4120, 4121, 4122, 4123, 4124
 4131, 4133, 4134, 4135, 4146, 4147, 4148, 4149, 4154, 4155, 4156, 4157, 4166, 4167, 4179, 4180
 4221, 4222, 4233, 4246, 4247, 4248, 4249, 4250, 4258, 4259, 4260, 4268, 4269, 4270, 4271, 4272
 4279, 4281, 4282, 4283, 4294, 4295, 4296, 4297, 4302, 4303, 4304, 4305, 4314, 4315, 4327, 4328
 4369, 4370, 4381, 4394, 4395, 4396, 4397, 4398, 4406, 4407, 4408, 4416, 4417, 4418, 4419, 4420
 4427, 4429, 4430, 4431, 4442, 4443, 4444, 4445, 4450, 4451, 4452, 4453, 4462, 4463, 4475, 4476
 4517, 4518, 4529, 4542, 4543, 4544, 4545, 4546, 4554, 4555, 4556, 4564, 4565, 4566, 4567, 4568
 4575, 4577, 4578, 4579, 4590, 4591, 4592, 4593, 4598, 4599, 4600, 4601, 4610, 4611, 4623, 4624
*Elset, elset=Set-KONG, instance=tanpian_abaqus-1-1-rad-3
 4073, 4074, 4085, 4098, 4099, 4100, 4101, 4102, 4110, 4111, 4112, 4120, 4121, 4122, 4123, 4124
 4131, 4133, 4134, 4135, 4146, 4147, 4148, 4149, 4154, 4155, 4156, 4157, 4166, 4167, 4179, 4180
 4221, 4222, 4233, 4246, 4247, 4248, 4249, 4250, 4258, 4259, 4260, 4268, 4269, 4270, 4271, 4272
 4279, 4281, 4282, 4283, 4294, 4295, 4296, 4297, 4302, 4303, 4304, 4305, 4314, 4315, 4327, 4328
 4369, 4370, 4381, 4394, 4395, 4396, 4397, 4398, 4406, 4407, 4408, 4416, 4417, 4418, 4419, 4420
 4427, 4429, 4430, 4431, 4442, 4443, 4444, 4445, 4450, 4451, 4452, 4453, 4462, 4463, 4475, 4476
 4517, 4518, 4529, 4542, 4543, 4544, 4545, 4546, 4554, 4555, 4556, 4564, 4565, 4566, 4567, 4568
 4575, 4577, 4578, 4579, 4590, 4591, 4592, 4593, 4598, 4599, 4600, 4601, 4610, 4611, 4623, 4624
*Elset, elset=Set-KONG, instance=tanpian_abaqus-1-1-rad-4
 4073, 4074, 4085, 4098, 4099, 4100, 4101, 4102, 4110, 4111, 4112, 4120, 4121, 4122, 4123, 4124
 4131, 4133, 4134, 4135, 4146, 4147, 4148, 4149, 4154, 4155, 4156, 4157, 4166, 4167, 4179, 4180
 4221, 4222, 4233, 4246, 4247, 4248, 4249, 4250, 4258, 4259, 4260, 4268, 4269, 4270, 4271, 4272
 4279, 4281, 4282, 4283, 4294, 4295, 4296, 4297, 4302, 4303, 4304, 4305, 4314, 4315, 4327, 4328
 4369, 4370, 4381, 4394, 4395, 4396, 4397, 4398, 4406, 4407, 4408, 4416, 4417, 4418, 4419, 4420
 4427, 4429, 4430, 4431, 4442, 4443, 4444, 4445, 4450, 4451, 4452, 4453, 4462, 4463, 4475, 4476
 4517, 4518, 4529, 4542, 4543, 4544, 4545, 4546, 4554, 4555, 4556, 4564, 4565, 4566, 4567, 4568
 4575, 4577, 4578, 4579, 4590, 4591, 4592, 4593, 4598, 4599, 4600, 4601, 4610, 4611, 4623, 4624
*Elset, elset=_m_Surf-1_S4, internal, instance=tanpian_abaqus-7-1
    1,    2,    3,    4,    5,    6,    7,    8,    9,   10,   11,   12,   13,   14,   15,   16
   17,   18,   19,   20,   21,   22,   23,   24,   25,   26,   27,   28,   29,   30,   31,   32
   33,   34,   35,   36,   37,   38,   39,   40,   41,   42,   43,   44,   45,   46,   47,   48
   49,   50,   51,   52,   53,   54,   55,   56,   57,   58,   59,   60,   61,   62,   63,   64
   65,   66,   67,   68,   69,   70,   71,   72,   73,   74,   75,   76,   77,   78,   79,   80
   81,   82,   83,   84,   85,   86,   87,   88,   89,   90,   91,   92,   93,   94,   95,   96
   97,   98,   99,  100,  101,  102,  103,  104,  105,  106,  107,  108,  109,  110, 1490, 1495
 1500, 1505, 1510, 1515, 1520, 1525, 1530, 1535, 1540
*Elset, elset=_m_Surf-1_S1, internal, instance=tanpian_abaqus-7-1
  45,  46,  47,  48,  49,  50,  51,  52,  53,  54,  55, 100, 101, 102, 103, 104
 105, 106, 107, 108, 109, 110, 155, 156, 157, 158, 159, 160, 161, 162, 163, 164
 165,
*Elset, elset=_m_Surf-1_S2, internal, instance=tanpian_abaqus-7-1, generate
 1486,  1540,     1
*Elset, elset=_m_Surf-1_S5, internal, instance=tanpian_abaqus-7-1, generate
 111,  165,    1
*Surface, type=ELEMENT, name=m_Surf-1
_m_Surf-1_S4, S4
_m_Surf-1_S1, S1
_m_Surf-1_S2, S2
_m_Surf-1_S5, S5
*Elset, elset=_s_Surf-1_S3, internal, instance=tanpian_abaqus-1-1
 337, 338, 339, 340, 341, 342, 343, 344, 345, 346, 347, 381, 382, 383, 384, 385
 386, 387, 388, 389, 390, 391, 425, 426, 427, 428, 429, 430, 431, 432, 433, 434
 435, 469, 470, 471, 472, 473, 474, 475, 476, 477, 478, 479, 513, 514, 515, 516
 517, 518, 519, 520, 521, 522, 523, 557, 558, 559, 560, 561, 562, 563, 564, 565
 566, 567, 601, 602, 603, 604, 605, 606, 607, 608, 609, 610, 611, 645, 646, 647
 648, 649, 650, 651, 652, 653, 654, 655, 689, 690, 691, 692, 693, 694, 695, 696
 697, 698, 699, 733, 734, 735, 736, 737, 738, 739, 740, 741, 742, 743, 777, 778
 779, 780, 781, 782, 783, 784, 785, 786, 787, 821, 822, 823, 824, 825, 826, 827
 828, 829, 830, 831
*Elset, elset=_s_Surf-1_S3, internal, instance=tanpian_abaqus-1-1-rad-2
 337, 338, 339, 340, 341, 342, 343, 344, 345, 346, 347, 381, 382, 383, 384, 385
 386, 387, 388, 389, 390, 391, 425, 426, 427, 428, 429, 430, 431, 432, 433, 434
 435, 469, 470, 471, 472, 473, 474, 475, 476, 477, 478, 479, 513, 514, 515, 516
 517, 518, 519, 520, 521, 522, 523, 557, 558, 559, 560, 561, 562, 563, 564, 565
 566, 567, 601, 602, 603, 604, 605, 606, 607, 608, 609, 610, 611, 645, 646, 647
 648, 649, 650, 651, 652, 653, 654, 655, 689, 690, 691, 692, 693, 694, 695, 696
 697, 698, 699, 733, 734, 735, 736, 737, 738, 739, 740, 741, 742, 743, 777, 778
 779, 780, 781, 782, 783, 784, 785, 786, 787, 821, 822, 823, 824, 825, 826, 827
 828, 829, 830, 831
*Elset, elset=_s_Surf-1_S3, internal, instance=tanpian_abaqus-1-1-rad-3
 337, 338, 339, 340, 341, 342, 343, 344, 345, 346, 347, 381, 382, 383, 384, 385
 386, 387, 388, 389, 390, 391, 425, 426, 427, 428, 429, 430, 431, 432, 433, 434
 435, 469, 470, 471, 472, 473, 474, 475, 476, 477, 478, 479, 513, 514, 515, 516
 517, 518, 519, 520, 521, 522, 523, 557, 558, 559, 560, 561, 562, 563, 564, 565
 566, 567, 601, 602, 603, 604, 605, 606, 607, 608, 609, 610, 611, 645, 646, 647
 648, 649, 650, 651, 652, 653, 654, 655, 689, 690, 691, 692, 693, 694, 695, 696
 697, 698, 699, 733, 734, 735, 736, 737, 738, 739, 740, 741, 742, 743, 777, 778
 779, 780, 781, 782, 783, 784, 785, 786, 787, 821, 822, 823, 824, 825, 826, 827
 828, 829, 830, 831
*Elset, elset=_s_Surf-1_S3, internal, instance=tanpian_abaqus-1-1-rad-4
 337, 338, 339, 340, 341, 342, 343, 344, 345, 346, 347, 381, 382, 383, 384, 385
 386, 387, 388, 389, 390, 391, 425, 426, 427, 428, 429, 430, 431, 432, 433, 434
 435, 469, 470, 471, 472, 473, 474, 475, 476, 477, 478, 479, 513, 514, 515, 516
 517, 518, 519, 520, 521, 522, 523, 557, 558, 559, 560, 561, 562, 563, 564, 565
 566, 567, 601, 602, 603, 604, 605, 606, 607, 608, 609, 610, 611, 645, 646, 647
 648, 649, 650, 651, 652, 653, 654, 655, 689, 690, 691, 692, 693, 694, 695, 696
 697, 698, 699, 733, 734, 735, 736, 737, 738, 739, 740, 741, 742, 743, 777, 778
 779, 780, 781, 782, 783, 784, 785, 786, 787, 821, 822, 823, 824, 825, 826, 827
 828, 829, 830, 831
*Elset, elset=_s_Surf-1_S2, internal, instance=tanpian_abaqus-1-1
   1,   2,   3,   4,   5,   6,   7,   8,   9,  10,  11,  12,  13,  14,  15,  16
  17,  18,  19,  20,  21,  22,  23,  24,  49,  50,  51,  52,  53,  54,  55,  56
  57,  58,  59,  60,  61,  62,  63,  64,  65,  66,  67,  68,  69,  70,  71,  72
  97,  98,  99, 100, 101, 102, 103, 104, 105, 106, 107, 108, 109, 110, 111, 112
 113, 114, 115, 116, 117, 118, 119, 120, 121, 122, 123, 124, 125, 126, 127, 128
 129, 130, 131, 132
*Elset, elset=_s_Surf-1_S2, internal, instance=tanpian_abaqus-1-1-rad-2
   1,   2,   3,   4,   5,   6,   7,   8,   9,  10,  11,  12,  13,  14,  15,  16
  17,  18,  19,  20,  21,  22,  23,  24,  49,  50,  51,  52,  53,  54,  55,  56
  57,  58,  59,  60,  61,  62,  63,  64,  65,  66,  67,  68,  69,  70,  71,  72
  97,  98,  99, 100, 101, 102, 103, 104, 105, 106, 107, 108, 109, 110, 111, 112
 113, 114, 115, 116, 117, 118, 119, 120, 121, 122, 123, 124, 125, 126, 127, 128
 129, 130, 131, 132
*Elset, elset=_s_Surf-1_S2, internal, instance=tanpian_abaqus-1-1-rad-3
   1,   2,   3,   4,   5,   6,   7,   8,   9,  10,  11,  12,  13,  14,  15,  16
  17,  18,  19,  20,  21,  22,  23,  24,  49,  50,  51,  52,  53,  54,  55,  56
  57,  58,  59,  60,  61,  62,  63,  64,  65,  66,  67,  68,  69,  70,  71,  72
  97,  98,  99, 100, 101, 102, 103, 104, 105, 106, 107, 108, 109, 110, 111, 112
 113, 114, 115, 116, 117, 118, 119, 120, 121, 122, 123, 124, 125, 126, 127, 128
 129, 130, 131, 132
*Elset, elset=_s_Surf-1_S2, internal, instance=tanpian_abaqus-1-1-rad-4
   1,   2,   3,   4,   5,   6,   7,   8,   9,  10,  11,  12,  13,  14,  15,  16
  17,  18,  19,  20,  21,  22,  23,  24,  49,  50,  51,  52,  53,  54,  55,  56
  57,  58,  59,  60,  61,  62,  63,  64,  65,  66,  67,  68,  69,  70,  71,  72
  97,  98,  99, 100, 101, 102, 103, 104, 105, 106, 107, 108, 109, 110, 111, 112
 113, 114, 115, 116, 117, 118, 119, 120, 121, 122, 123, 124, 125, 126, 127, 128
 129, 130, 131, 132
*Surface, type=ELEMENT, name=s_Surf-1
_s_Surf-1_S3, S3
_s_Surf-1_S2, S2
*Surface, type=NODE, name=Set-KONG_CNS_, internal
Set-KONG, 1.
** Constraint: Constraint-1
*Rigid Body, ref node=tanpian_abaqus-6_1-1.Set-TN-RP, elset=tanpian_abaqus-6_1-1.Set-TN-ALL, position=CENTER OF MASS
** Constraint: Constraint-2
*Rigid Body, ref node=tanpian_abaqus-7-1.Set-TW-RP, elset=tanpian_abaqus-7-1.Set-TW-ALL, position=CENTER OF MASS
** Constraint: Constraint-3
*Coupling, constraint name=Constraint-3, ref node=Set-BAN-RP, surface=Set-KONG_CNS_
*Kinematic
*Elset, elset=__Int-1_gcs0_2_S3, internal, instance=tanpian_abaqus-1-1
 169, 170, 171, 172, 173, 174, 181, 182, 183, 184, 185, 186, 193, 194, 195, 196
 197, 198, 205, 206, 207, 208, 209, 210
*Elset, elset=__Int-1_gcs0_2_S4, internal, instance=tanpian_abaqus-1-1, generate
 218,  336,    2
*Surface, type=ELEMENT, name=_Int-1_gcs0_2, internal
__Int-1_gcs0_2_S3, S3
__Int-1_gcs0_2_S4, S4
*Elset, elset=__Int-1_gcs0_3_S3, internal, instance=tanpian_abaqus-1-1
 337, 338, 339, 340, 341, 342, 343, 344, 345, 346, 347, 381, 382, 383, 384, 385
 386, 387, 388, 389, 390, 391, 425, 426, 427, 428, 429, 430, 431, 432, 433, 434
 435, 469, 470, 471, 472, 473, 474, 475, 476, 477, 478, 479, 513, 514, 515, 516
 517, 518, 519, 520, 521, 522, 523, 557, 558, 559, 560, 561, 562, 563, 564, 565
 566, 567, 601, 602, 603, 604, 605, 606, 607, 608, 609, 610, 611, 645, 646, 647
 648, 649, 650, 651, 652, 653, 654, 655, 689, 690, 691, 692, 693, 694, 695, 696
 697, 698, 699, 733, 734, 735, 736, 737, 738, 739, 740, 741, 742, 743, 777, 778
 779, 780, 781, 782, 783, 784, 785, 786, 787, 821, 822, 823, 824, 825, 826, 827
 828, 829, 830, 831
*Surface, type=ELEMENT, name=_Int-1_gcs0_3, internal
__Int-1_gcs0_3_S3, S3
*Elset, elset=__Int-1_gcs0_13_S5, internal, instance=tanpian_abaqus-1-1
 370, 371, 372, 373, 374, 375, 376, 377, 378, 379, 380, 414, 415, 416, 417, 418
 419, 420, 421, 422, 423, 424, 458, 459, 460, 461, 462, 463, 464, 465, 466, 467
 468, 502, 503, 504, 505, 506, 507, 508, 509, 510, 511, 512, 546, 547, 548, 549
 550, 551, 552, 553, 554, 555, 556, 590, 591, 592, 593, 594, 595, 596, 597, 598
 599, 600, 634, 635, 636, 637, 638, 639, 640, 641, 642, 643, 644, 678, 679, 680
 681, 682, 683, 684, 685, 686, 687, 688, 722, 723, 724, 725, 726, 727, 728, 729
 730, 731, 732, 766, 767, 768, 769, 770, 771, 772, 773, 774, 775, 776, 810, 811
 812, 813, 814, 815, 816, 817, 818, 819, 820, 854, 855, 856, 857, 858, 859, 860
 861, 862, 863, 864
*Surface, type=ELEMENT, name=_Int-1_gcs0_13, internal
__Int-1_gcs0_13_S5, S5
*Elset, elset=__Int-1_gcs0_14_S4, internal, instance=tanpian_abaqus-1-1
 4636, 4640, 4652, 4656, 4668, 4672, 4684, 4688, 4700, 4704, 4716, 4720, 4732, 4736, 4748, 4752
 4764, 4768, 4780, 4784, 4796, 4800, 4812, 4816
*Surface, type=ELEMENT, name=_Int-1_gcs0_14, internal
__Int-1_gcs0_14_S4, S4
*Elset, elset=__Int-1_gcs0_15_S5, internal, instance=tanpian_abaqus-1-1
 4073, 4074, 4102, 4221, 4222, 4250, 4369, 4370, 4398, 4517, 4518, 4546
*Elset, elset=__Int-1_gcs0_15_S4, internal, instance=tanpian_abaqus-1-1
 4085, 4098, 4099, 4100, 4101, 4233, 4246, 4247, 4248, 4249, 4381, 4394, 4395, 4396, 4397, 4529
 4542, 4543, 4544, 4545
*Surface, type=ELEMENT, name=_Int-1_gcs0_15, internal
__Int-1_gcs0_15_S5, S5
__Int-1_gcs0_15_S4, S4
*Elset, elset=__Int-1_gcs0_16_S4, internal, instance=tanpian_abaqus-1-1
 4131, 4133, 4146, 4147, 4148, 4279, 4281, 4294, 4295, 4296, 4427, 4429, 4442, 4443, 4444, 4575
 4577, 4590, 4591, 4592
*Elset, elset=__Int-1_gcs0_16_S5, internal, instance=tanpian_abaqus-1-1
 4134, 4135, 4149, 4282, 4283, 4297, 4430, 4431, 4445, 4578, 4579, 4593
*Surface, type=ELEMENT, name=_Int-1_gcs0_16, internal
__Int-1_gcs0_16_S4, S4
__Int-1_gcs0_16_S5, S5
*Elset, elset=__Int-1_gcs0_24_S4, internal, instance=tanpian_abaqus-1-1
 4154, 4179, 4180, 4302, 4327, 4328, 4450, 4475, 4476, 4598, 4623, 4624
*Elset, elset=__Int-1_gcs0_24_S5, internal, instance=tanpian_abaqus-1-1
 4155, 4156, 4157, 4166, 4167, 4303, 4304, 4305, 4314, 4315, 4451, 4452, 4453, 4462, 4463, 4599
 4600, 4601, 4610, 4611
*Surface, type=ELEMENT, name=_Int-1_gcs0_24, internal
__Int-1_gcs0_24_S4, S4
__Int-1_gcs0_24_S5, S5
*Elset, elset=__Int-1_gcs0_25_S4, internal, instance=tanpian_abaqus-1-1
 4110, 4111, 4120, 4121, 4258, 4259, 4268, 4269, 4406, 4407, 4416, 4417, 4554, 4555, 4564, 4565
*Elset, elset=__Int-1_gcs0_25_S5, internal, instance=tanpian_abaqus-1-1
 4112, 4122, 4123, 4124, 4260, 4270, 4271, 4272, 4408, 4418, 4419, 4420, 4556, 4566, 4567, 4568
*Surface, type=ELEMENT, name=_Int-1_gcs0_25, internal
__Int-1_gcs0_25_S4, S4
__Int-1_gcs0_25_S5, S5
*Elset, elset=__Int-1_gcs0_26_S6, internal, instance=tanpian_abaqus-1-1
 4633, 4637, 4649, 4653, 4665, 4669, 4681, 4685, 4697, 4701, 4713, 4717, 4729, 4733, 4745, 4749
 4761, 4765, 4777, 4781, 4793, 4797, 4809, 4813
*Surface, type=ELEMENT, name=_Int-1_gcs0_26, internal
__Int-1_gcs0_26_S6, S6
*Elset, elset=__Int-1_gcs0_27_S2, internal, instance=tanpian_abaqus-1-1
   1,   2,   3,   4,   5,   6,   7,   8,   9,  10,  11,  12,  13,  14,  15,  16
  17,  18,  19,  20,  21,  22,  23,  24,  49,  50,  51,  52,  53,  54,  55,  56
  57,  58,  59,  60,  61,  62,  63,  64,  65,  66,  67,  68,  69,  70,  71,  72
  97,  98,  99, 100, 101, 102, 103, 104, 105, 106, 107, 108, 109, 110, 111, 112
 113, 114, 115, 116, 117, 118, 119, 120, 121, 122, 123, 124, 125, 126, 127, 128
 129, 130, 131, 132
*Surface, type=ELEMENT, name=_Int-1_gcs0_27, internal
__Int-1_gcs0_27_S2, S2
*Elset, elset=__Int-1_gcs0_32_S1, internal, instance=tanpian_abaqus-1-1, generate
 4625,  4640,     1
*Surface, type=ELEMENT, name=_Int-1_gcs0_32, internal
__Int-1_gcs0_32_S1, S1
*Elset, elset=__Int-1_gcs0_33_S2, internal, instance=tanpian_abaqus-1-1, generate
 4801,  4816,     1
*Surface, type=ELEMENT, name=_Int-1_gcs0_33, internal
__Int-1_gcs0_33_S2, S2
*Elset, elset=__Int-1_gcs0_44_S3, internal, instance=tanpian_abaqus-7-1, generate
 1046,  1485,     1
*Surface, type=ELEMENT, name=_Int-1_gcs0_44, internal
__Int-1_gcs0_44_S3, S3
*Elset, elset=__Int-1_gcs0_47_S5, internal, instance=tanpian_abaqus-7-1, generate
 1046,  1485,     1
*Surface, type=ELEMENT, name=_Int-1_gcs0_47, internal
__Int-1_gcs0_47_S5, S5
*Elset, elset=__Int-1_gcs0_49_S6, internal, instance=tanpian_abaqus-7-1, generate
 166,  605,    1
*Surface, type=ELEMENT, name=_Int-1_gcs0_49, internal
__Int-1_gcs0_49_S6, S6
*Elset, elset=__Int-1_gcs0_50_S4, internal, instance=tanpian_abaqus-7-1, generate
  606,  1045,     1
*Surface, type=ELEMENT, name=_Int-1_gcs0_50, internal
__Int-1_gcs0_50_S4, S4
*Elset, elset=__Int-1_gcs0_54_S2, internal, instance=tanpian_abaqus-7-1, generate
 1486,  1540,     1
*Surface, type=ELEMENT, name=_Int-1_gcs0_54, internal
__Int-1_gcs0_54_S2, S2
*Elset, elset=__Int-1_gcs0_55_S6, internal, instance=tanpian_abaqus-7-1, generate
  1,  55,   1
*Surface, type=ELEMENT, name=_Int-1_gcs0_55, internal
__Int-1_gcs0_55_S6, S6
*Elset, elset=__Int-1_gcs0_56_S4, internal, instance=tanpian_abaqus-7-1, generate
  56,  110,    1
*Surface, type=ELEMENT, name=_Int-1_gcs0_56, internal
__Int-1_gcs0_56_S4, S4
*Elset, elset=__Int-1_gcs0_59_S6, internal, instance=tanpian_abaqus-7-1, generate
  56,  110,    1
*Surface, type=ELEMENT, name=_Int-1_gcs0_59, internal
__Int-1_gcs0_59_S6, S6
*Elset, elset=__Int-1_gcs0_60_S6, internal, instance=tanpian_abaqus-7-1, generate
 1541,  1980,     1
*Surface, type=ELEMENT, name=_Int-1_gcs0_60, internal
__Int-1_gcs0_60_S6, S6
*Elset, elset=__Int-1_gcs0_61_S5, internal, instance=tanpian_abaqus-7-1, generate
 111,  165,    1
*Surface, type=ELEMENT, name=_Int-1_gcs0_61, internal
__Int-1_gcs0_61_S5, S5
*Elset, elset=__Int-1_gcs0_62_S1, internal, instance=tanpian_abaqus-7-1, generate
 1486,  1540,     1
*Surface, type=ELEMENT, name=_Int-1_gcs0_62, internal
__Int-1_gcs0_62_S1, S1
*Elset, elset=__Int-1_gcs0_63_S6, internal, instance=tanpian_abaqus-7-1, generate
  606,  1045,     1
*Surface, type=ELEMENT, name=_Int-1_gcs0_63, internal
__Int-1_gcs0_63_S6, S6
*Elset, elset=__Int-1_gcs0_64_S4, internal, instance=tanpian_abaqus-7-1, generate
 1541,  1980,     1
*Surface, type=ELEMENT, name=_Int-1_gcs0_64, internal
__Int-1_gcs0_64_S4, S4
*Elset, elset=__Int-1_gcs0_65_S3, internal, instance=tanpian_abaqus-7-1, generate
 111,  165,    1
*Surface, type=ELEMENT, name=_Int-1_gcs0_65, internal
__Int-1_gcs0_65_S3, S3
*Elset, elset=__Int-1_gcs0_67_S4, internal, instance=tanpian_abaqus-7-1, generate
  1,  55,   1
*Surface, type=ELEMENT, name=_Int-1_gcs0_67, internal
__Int-1_gcs0_67_S4, S4
*Elset, elset=__Int-1_gcs0_68_S4, internal, instance=tanpian_abaqus-7-1, generate
 166,  605,    1
*Surface, type=ELEMENT, name=_Int-1_gcs0_68, internal
__Int-1_gcs0_68_S4, S4
*Elset, elset=__Int-1_gcs0_71_S3, internal, instance=tanpian_abaqus-1-1-rad-2
 169, 170, 171, 172, 173, 174, 181, 182, 183, 184, 185, 186, 193, 194, 195, 196
 197, 198, 205, 206, 207, 208, 209, 210
*Elset, elset=__Int-1_gcs0_71_S4, internal, instance=tanpian_abaqus-1-1-rad-2, generate
 218,  336,    2
*Surface, type=ELEMENT, name=_Int-1_gcs0_71, internal
__Int-1_gcs0_71_S3, S3
__Int-1_gcs0_71_S4, S4
*Elset, elset=__Int-1_gcs0_72_S3, internal, instance=tanpian_abaqus-1-1-rad-2
 337, 338, 339, 340, 341, 342, 343, 344, 345, 346, 347, 381, 382, 383, 384, 385
 386, 387, 388, 389, 390, 391, 425, 426, 427, 428, 429, 430, 431, 432, 433, 434
 435, 469, 470, 471, 472, 473, 474, 475, 476, 477, 478, 479, 513, 514, 515, 516
 517, 518, 519, 520, 521, 522, 523, 557, 558, 559, 560, 561, 562, 563, 564, 565
 566, 567, 601, 602, 603, 604, 605, 606, 607, 608, 609, 610, 611, 645, 646, 647
 648, 649, 650, 651, 652, 653, 654, 655, 689, 690, 691, 692, 693, 694, 695, 696
 697, 698, 699, 733, 734, 735, 736, 737, 738, 739, 740, 741, 742, 743, 777, 778
 779, 780, 781, 782, 783, 784, 785, 786, 787, 821, 822, 823, 824, 825, 826, 827
 828, 829, 830, 831
*Surface, type=ELEMENT, name=_Int-1_gcs0_72, internal
__Int-1_gcs0_72_S3, S3
*Elset, elset=__Int-1_gcs0_82_S5, internal, instance=tanpian_abaqus-1-1-rad-2
 370, 371, 372, 373, 374, 375, 376, 377, 378, 379, 380, 414, 415, 416, 417, 418
 419, 420, 421, 422, 423, 424, 458, 459, 460, 461, 462, 463, 464, 465, 466, 467
 468, 502, 503, 504, 505, 506, 507, 508, 509, 510, 511, 512, 546, 547, 548, 549
 550, 551, 552, 553, 554, 555, 556, 590, 591, 592, 593, 594, 595, 596, 597, 598
 599, 600, 634, 635, 636, 637, 638, 639, 640, 641, 642, 643, 644, 678, 679, 680
 681, 682, 683, 684, 685, 686, 687, 688, 722, 723, 724, 725, 726, 727, 728, 729
 730, 731, 732, 766, 767, 768, 769, 770, 771, 772, 773, 774, 775, 776, 810, 811
 812, 813, 814, 815, 816, 817, 818, 819, 820, 854, 855, 856, 857, 858, 859, 860
 861, 862, 863, 864
*Surface, type=ELEMENT, name=_Int-1_gcs0_82, internal
__Int-1_gcs0_82_S5, S5
*Elset, elset=__Int-1_gcs0_83_S4, internal, instance=tanpian_abaqus-1-1-rad-2
 4636, 4640, 4652, 4656, 4668, 4672, 4684, 4688, 4700, 4704, 4716, 4720, 4732, 4736, 4748, 4752
 4764, 4768, 4780, 4784, 4796, 4800, 4812, 4816
*Surface, type=ELEMENT, name=_Int-1_gcs0_83, internal
__Int-1_gcs0_83_S4, S4
*Elset, elset=__Int-1_gcs0_84_S5, internal, instance=tanpian_abaqus-1-1-rad-2
 4073, 4074, 4102, 4221, 4222, 4250, 4369, 4370, 4398, 4517, 4518, 4546
*Elset, elset=__Int-1_gcs0_84_S4, internal, instance=tanpian_abaqus-1-1-rad-2
 4085, 4098, 4099, 4100, 4101, 4233, 4246, 4247, 4248, 4249, 4381, 4394, 4395, 4396, 4397, 4529
 4542, 4543, 4544, 4545
*Surface, type=ELEMENT, name=_Int-1_gcs0_84, internal
__Int-1_gcs0_84_S5, S5
__Int-1_gcs0_84_S4, S4
*Elset, elset=__Int-1_gcs0_85_S4, internal, instance=tanpian_abaqus-1-1-rad-2
 4131, 4133, 4146, 4147, 4148, 4279, 4281, 4294, 4295, 4296, 4427, 4429, 4442, 4443, 4444, 4575
 4577, 4590, 4591, 4592
*Elset, elset=__Int-1_gcs0_85_S5, internal, instance=tanpian_abaqus-1-1-rad-2
 4134, 4135, 4149, 4282, 4283, 4297, 4430, 4431, 4445, 4578, 4579, 4593
*Surface, type=ELEMENT, name=_Int-1_gcs0_85, internal
__Int-1_gcs0_85_S4, S4
__Int-1_gcs0_85_S5, S5
*Elset, elset=__Int-1_gcs0_93_S4, internal, instance=tanpian_abaqus-1-1-rad-2
 4154, 4179, 4180, 4302, 4327, 4328, 4450, 4475, 4476, 4598, 4623, 4624
*Elset, elset=__Int-1_gcs0_93_S5, internal, instance=tanpian_abaqus-1-1-rad-2
 4155, 4156, 4157, 4166, 4167, 4303, 4304, 4305, 4314, 4315, 4451, 4452, 4453, 4462, 4463, 4599
 4600, 4601, 4610, 4611
*Surface, type=ELEMENT, name=_Int-1_gcs0_93, internal
__Int-1_gcs0_93_S4, S4
__Int-1_gcs0_93_S5, S5
*Elset, elset=__Int-1_gcs0_94_S4, internal, instance=tanpian_abaqus-1-1-rad-2
 4110, 4111, 4120, 4121, 4258, 4259, 4268, 4269, 4406, 4407, 4416, 4417, 4554, 4555, 4564, 4565
*Elset, elset=__Int-1_gcs0_94_S5, internal, instance=tanpian_abaqus-1-1-rad-2
 4112, 4122, 4123, 4124, 4260, 4270, 4271, 4272, 4408, 4418, 4419, 4420, 4556, 4566, 4567, 4568
*Surface, type=ELEMENT, name=_Int-1_gcs0_94, internal
__Int-1_gcs0_94_S4, S4
__Int-1_gcs0_94_S5, S5
*Elset, elset=__Int-1_gcs0_95_S6, internal, instance=tanpian_abaqus-1-1-rad-2
 4633, 4637, 4649, 4653, 4665, 4669, 4681, 4685, 4697, 4701, 4713, 4717, 4729, 4733, 4745, 4749
 4761, 4765, 4777, 4781, 4793, 4797, 4809, 4813
*Surface, type=ELEMENT, name=_Int-1_gcs0_95, internal
__Int-1_gcs0_95_S6, S6
*Elset, elset=__Int-1_gcs0_96_S2, internal, instance=tanpian_abaqus-1-1-rad-2
   1,   2,   3,   4,   5,   6,   7,   8,   9,  10,  11,  12,  13,  14,  15,  16
  17,  18,  19,  20,  21,  22,  23,  24,  49,  50,  51,  52,  53,  54,  55,  56
  57,  58,  59,  60,  61,  62,  63,  64,  65,  66,  67,  68,  69,  70,  71,  72
  97,  98,  99, 100, 101, 102, 103, 104, 105, 106, 107, 108, 109, 110, 111, 112
 113, 114, 115, 116, 117, 118, 119, 120, 121, 122, 123, 124, 125, 126, 127, 128
 129, 130, 131, 132
*Surface, type=ELEMENT, name=_Int-1_gcs0_96, internal
__Int-1_gcs0_96_S2, S2
*Elset, elset=__Int-1_gcs0_101_S1, internal, instance=tanpian_abaqus-1-1-rad-2, generate
 4625,  4640,     1
*Surface, type=ELEMENT, name=_Int-1_gcs0_101, internal
__Int-1_gcs0_101_S1, S1
*Elset, elset=__Int-1_gcs0_102_S2, internal, instance=tanpian_abaqus-1-1-rad-2, generate
 4801,  4816,     1
*Surface, type=ELEMENT, name=_Int-1_gcs0_102, internal
__Int-1_gcs0_102_S2, S2
*Elset, elset=__Int-1_gcs0_104_S3, internal, instance=tanpian_abaqus-1-1-rad-3
 169, 170, 171, 172, 173, 174, 181, 182, 183, 184, 185, 186, 193, 194, 195, 196
 197, 198, 205, 206, 207, 208, 209, 210
*Elset, elset=__Int-1_gcs0_104_S4, internal, instance=tanpian_abaqus-1-1-rad-3, generate
 218,  336,    2
*Surface, type=ELEMENT, name=_Int-1_gcs0_104, internal
__Int-1_gcs0_104_S3, S3
__Int-1_gcs0_104_S4, S4
*Elset, elset=__Int-1_gcs0_105_S3, internal, instance=tanpian_abaqus-1-1-rad-3
 337, 338, 339, 340, 341, 342, 343, 344, 345, 346, 347, 381, 382, 383, 384, 385
 386, 387, 388, 389, 390, 391, 425, 426, 427, 428, 429, 430, 431, 432, 433, 434
 435, 469, 470, 471, 472, 473, 474, 475, 476, 477, 478, 479, 513, 514, 515, 516
 517, 518, 519, 520, 521, 522, 523, 557, 558, 559, 560, 561, 562, 563, 564, 565
 566, 567, 601, 602, 603, 604, 605, 606, 607, 608, 609, 610, 611, 645, 646, 647
 648, 649, 650, 651, 652, 653, 654, 655, 689, 690, 691, 692, 693, 694, 695, 696
 697, 698, 699, 733, 734, 735, 736, 737, 738, 739, 740, 741, 742, 743, 777, 778
 779, 780, 781, 782, 783, 784, 785, 786, 787, 821, 822, 823, 824, 825, 826, 827
 828, 829, 830, 831
*Surface, type=ELEMENT, name=_Int-1_gcs0_105, internal
__Int-1_gcs0_105_S3, S3
*Elset, elset=__Int-1_gcs0_115_S5, internal, instance=tanpian_abaqus-1-1-rad-3
 370, 371, 372, 373, 374, 375, 376, 377, 378, 379, 380, 414, 415, 416, 417, 418
 419, 420, 421, 422, 423, 424, 458, 459, 460, 461, 462, 463, 464, 465, 466, 467
 468, 502, 503, 504, 505, 506, 507, 508, 509, 510, 511, 512, 546, 547, 548, 549
 550, 551, 552, 553, 554, 555, 556, 590, 591, 592, 593, 594, 595, 596, 597, 598
 599, 600, 634, 635, 636, 637, 638, 639, 640, 641, 642, 643, 644, 678, 679, 680
 681, 682, 683, 684, 685, 686, 687, 688, 722, 723, 724, 725, 726, 727, 728, 729
 730, 731, 732, 766, 767, 768, 769, 770, 771, 772, 773, 774, 775, 776, 810, 811
 812, 813, 814, 815, 816, 817, 818, 819, 820, 854, 855, 856, 857, 858, 859, 860
 861, 862, 863, 864
*Surface, type=ELEMENT, name=_Int-1_gcs0_115, internal
__Int-1_gcs0_115_S5, S5
*Elset, elset=__Int-1_gcs0_116_S4, internal, instance=tanpian_abaqus-1-1-rad-3
 4636, 4640, 4652, 4656, 4668, 4672, 4684, 4688, 4700, 4704, 4716, 4720, 4732, 4736, 4748, 4752
 4764, 4768, 4780, 4784, 4796, 4800, 4812, 4816
*Surface, type=ELEMENT, name=_Int-1_gcs0_116, internal
__Int-1_gcs0_116_S4, S4
*Elset, elset=__Int-1_gcs0_117_S5, internal, instance=tanpian_abaqus-1-1-rad-3
 4073, 4074, 4102, 4221, 4222, 4250, 4369, 4370, 4398, 4517, 4518, 4546
*Elset, elset=__Int-1_gcs0_117_S4, internal, instance=tanpian_abaqus-1-1-rad-3
 4085, 4098, 4099, 4100, 4101, 4233, 4246, 4247, 4248, 4249, 4381, 4394, 4395, 4396, 4397, 4529
 4542, 4543, 4544, 4545
*Surface, type=ELEMENT, name=_Int-1_gcs0_117, internal
__Int-1_gcs0_117_S5, S5
__Int-1_gcs0_117_S4, S4
*Elset, elset=__Int-1_gcs0_118_S4, internal, instance=tanpian_abaqus-1-1-rad-3
 4131, 4133, 4146, 4147, 4148, 4279, 4281, 4294, 4295, 4296, 4427, 4429, 4442, 4443, 4444, 4575
 4577, 4590, 4591, 4592
*Elset, elset=__Int-1_gcs0_118_S5, internal, instance=tanpian_abaqus-1-1-rad-3
 4134, 4135, 4149, 4282, 4283, 4297, 4430, 4431, 4445, 4578, 4579, 4593
*Surface, type=ELEMENT, name=_Int-1_gcs0_118, internal
__Int-1_gcs0_118_S4, S4
__Int-1_gcs0_118_S5, S5
*Elset, elset=__Int-1_gcs0_126_S4, internal, instance=tanpian_abaqus-1-1-rad-3
 4154, 4179, 4180, 4302, 4327, 4328, 4450, 4475, 4476, 4598, 4623, 4624
*Elset, elset=__Int-1_gcs0_126_S5, internal, instance=tanpian_abaqus-1-1-rad-3
 4155, 4156, 4157, 4166, 4167, 4303, 4304, 4305, 4314, 4315, 4451, 4452, 4453, 4462, 4463, 4599
 4600, 4601, 4610, 4611
*Surface, type=ELEMENT, name=_Int-1_gcs0_126, internal
__Int-1_gcs0_126_S4, S4
__Int-1_gcs0_126_S5, S5
*Elset, elset=__Int-1_gcs0_127_S4, internal, instance=tanpian_abaqus-1-1-rad-3
 4110, 4111, 4120, 4121, 4258, 4259, 4268, 4269, 4406, 4407, 4416, 4417, 4554, 4555, 4564, 4565
*Elset, elset=__Int-1_gcs0_127_S5, internal, instance=tanpian_abaqus-1-1-rad-3
 4112, 4122, 4123, 4124, 4260, 4270, 4271, 4272, 4408, 4418, 4419, 4420, 4556, 4566, 4567, 4568
*Surface, type=ELEMENT, name=_Int-1_gcs0_127, internal
__Int-1_gcs0_127_S4, S4
__Int-1_gcs0_127_S5, S5
*Elset, elset=__Int-1_gcs0_128_S6, internal, instance=tanpian_abaqus-1-1-rad-3
 4633, 4637, 4649, 4653, 4665, 4669, 4681, 4685, 4697, 4701, 4713, 4717, 4729, 4733, 4745, 4749
 4761, 4765, 4777, 4781, 4793, 4797, 4809, 4813
*Surface, type=ELEMENT, name=_Int-1_gcs0_128, internal
__Int-1_gcs0_128_S6, S6
*Elset, elset=__Int-1_gcs0_129_S2, internal, instance=tanpian_abaqus-1-1-rad-3
   1,   2,   3,   4,   5,   6,   7,   8,   9,  10,  11,  12,  13,  14,  15,  16
  17,  18,  19,  20,  21,  22,  23,  24,  49,  50,  51,  52,  53,  54,  55,  56
  57,  58,  59,  60,  61,  62,  63,  64,  65,  66,  67,  68,  69,  70,  71,  72
  97,  98,  99, 100, 101, 102, 103, 104, 105, 106, 107, 108, 109, 110, 111, 112
 113, 114, 115, 116, 117, 118, 119, 120, 121, 122, 123, 124, 125, 126, 127, 128
 129, 130, 131, 132
*Surface, type=ELEMENT, name=_Int-1_gcs0_129, internal
__Int-1_gcs0_129_S2, S2
*Elset, elset=__Int-1_gcs0_134_S1, internal, instance=tanpian_abaqus-1-1-rad-3, generate
 4625,  4640,     1
*Surface, type=ELEMENT, name=_Int-1_gcs0_134, internal
__Int-1_gcs0_134_S1, S1
*Elset, elset=__Int-1_gcs0_135_S2, internal, instance=tanpian_abaqus-1-1-rad-3, generate
 4801,  4816,     1
*Surface, type=ELEMENT, name=_Int-1_gcs0_135, internal
__Int-1_gcs0_135_S2, S2
*Elset, elset=__Int-1_gcs0_137_S3, internal, instance=tanpian_abaqus-1-1-rad-4
 169, 170, 171, 172, 173, 174, 181, 182, 183, 184, 185, 186, 193, 194, 195, 196
 197, 198, 205, 206, 207, 208, 209, 210
*Elset, elset=__Int-1_gcs0_137_S4, internal, instance=tanpian_abaqus-1-1-rad-4, generate
 218,  336,    2
*Surface, type=ELEMENT, name=_Int-1_gcs0_137, internal
__Int-1_gcs0_137_S3, S3
__Int-1_gcs0_137_S4, S4
*Elset, elset=__Int-1_gcs0_138_S3, internal, instance=tanpian_abaqus-1-1-rad-4
 337, 338, 339, 340, 341, 342, 343, 344, 345, 346, 347, 381, 382, 383, 384, 385
 386, 387, 388, 389, 390, 391, 425, 426, 427, 428, 429, 430, 431, 432, 433, 434
 435, 469, 470, 471, 472, 473, 474, 475, 476, 477, 478, 479, 513, 514, 515, 516
 517, 518, 519, 520, 521, 522, 523, 557, 558, 559, 560, 561, 562, 563, 564, 565
 566, 567, 601, 602, 603, 604, 605, 606, 607, 608, 609, 610, 611, 645, 646, 647
 648, 649, 650, 651, 652, 653, 654, 655, 689, 690, 691, 692, 693, 694, 695, 696
 697, 698, 699, 733, 734, 735, 736, 737, 738, 739, 740, 741, 742, 743, 777, 778
 779, 780, 781, 782, 783, 784, 785, 786, 787, 821, 822, 823, 824, 825, 826, 827
 828, 829, 830, 831
*Surface, type=ELEMENT, name=_Int-1_gcs0_138, internal
__Int-1_gcs0_138_S3, S3
*Elset, elset=__Int-1_gcs0_148_S5, internal, instance=tanpian_abaqus-1-1-rad-4
 370, 371, 372, 373, 374, 375, 376, 377, 378, 379, 380, 414, 415, 416, 417, 418
 419, 420, 421, 422, 423, 424, 458, 459, 460, 461, 462, 463, 464, 465, 466, 467
 468, 502, 503, 504, 505, 506, 507, 508, 509, 510, 511, 512, 546, 547, 548, 549
 550, 551, 552, 553, 554, 555, 556, 590, 591, 592, 593, 594, 595, 596, 597, 598
 599, 600, 634, 635, 636, 637, 638, 639, 640, 641, 642, 643, 644, 678, 679, 680
 681, 682, 683, 684, 685, 686, 687, 688, 722, 723, 724, 725, 726, 727, 728, 729
 730, 731, 732, 766, 767, 768, 769, 770, 771, 772, 773, 774, 775, 776, 810, 811
 812, 813, 814, 815, 816, 817, 818, 819, 820, 854, 855, 856, 857, 858, 859, 860
 861, 862, 863, 864
*Surface, type=ELEMENT, name=_Int-1_gcs0_148, internal
__Int-1_gcs0_148_S5, S5
*Elset, elset=__Int-1_gcs0_149_S4, internal, instance=tanpian_abaqus-1-1-rad-4
 4636, 4640, 4652, 4656, 4668, 4672, 4684, 4688, 4700, 4704, 4716, 4720, 4732, 4736, 4748, 4752
 4764, 4768, 4780, 4784, 4796, 4800, 4812, 4816
*Surface, type=ELEMENT, name=_Int-1_gcs0_149, internal
__Int-1_gcs0_149_S4, S4
*Elset, elset=__Int-1_gcs0_150_S5, internal, instance=tanpian_abaqus-1-1-rad-4
 4073, 4074, 4102, 4221, 4222, 4250, 4369, 4370, 4398, 4517, 4518, 4546
*Elset, elset=__Int-1_gcs0_150_S4, internal, instance=tanpian_abaqus-1-1-rad-4
 4085, 4098, 4099, 4100, 4101, 4233, 4246, 4247, 4248, 4249, 4381, 4394, 4395, 4396, 4397, 4529
 4542, 4543, 4544, 4545
*Surface, type=ELEMENT, name=_Int-1_gcs0_150, internal
__Int-1_gcs0_150_S5, S5
__Int-1_gcs0_150_S4, S4
*Elset, elset=__Int-1_gcs0_151_S4, internal, instance=tanpian_abaqus-1-1-rad-4
 4131, 4133, 4146, 4147, 4148, 4279, 4281, 4294, 4295, 4296, 4427, 4429, 4442, 4443, 4444, 4575
 4577, 4590, 4591, 4592
*Elset, elset=__Int-1_gcs0_151_S5, internal, instance=tanpian_abaqus-1-1-rad-4
 4134, 4135, 4149, 4282, 4283, 4297, 4430, 4431, 4445, 4578, 4579, 4593
*Surface, type=ELEMENT, name=_Int-1_gcs0_151, internal
__Int-1_gcs0_151_S4, S4
__Int-1_gcs0_151_S5, S5
*Elset, elset=__Int-1_gcs0_159_S4, internal, instance=tanpian_abaqus-1-1-rad-4
 4154, 4179, 4180, 4302, 4327, 4328, 4450, 4475, 4476, 4598, 4623, 4624
*Elset, elset=__Int-1_gcs0_159_S5, internal, instance=tanpian_abaqus-1-1-rad-4
 4155, 4156, 4157, 4166, 4167, 4303, 4304, 4305, 4314, 4315, 4451, 4452, 4453, 4462, 4463, 4599
 4600, 4601, 4610, 4611
*Surface, type=ELEMENT, name=_Int-1_gcs0_159, internal
__Int-1_gcs0_159_S4, S4
__Int-1_gcs0_159_S5, S5
*Elset, elset=__Int-1_gcs0_160_S4, internal, instance=tanpian_abaqus-1-1-rad-4
 4110, 4111, 4120, 4121, 4258, 4259, 4268, 4269, 4406, 4407, 4416, 4417, 4554, 4555, 4564, 4565
*Elset, elset=__Int-1_gcs0_160_S5, internal, instance=tanpian_abaqus-1-1-rad-4
 4112, 4122, 4123, 4124, 4260, 4270, 4271, 4272, 4408, 4418, 4419, 4420, 4556, 4566, 4567, 4568
*Surface, type=ELEMENT, name=_Int-1_gcs0_160, internal
__Int-1_gcs0_160_S4, S4
__Int-1_gcs0_160_S5, S5
*Elset, elset=__Int-1_gcs0_161_S6, internal, instance=tanpian_abaqus-1-1-rad-4
 4633, 4637, 4649, 4653, 4665, 4669, 4681, 4685, 4697, 4701, 4713, 4717, 4729, 4733, 4745, 4749
 4761, 4765, 4777, 4781, 4793, 4797, 4809, 4813
*Surface, type=ELEMENT, name=_Int-1_gcs0_161, internal
__Int-1_gcs0_161_S6, S6
*Elset, elset=__Int-1_gcs0_162_S2, internal, instance=tanpian_abaqus-1-1-rad-4
   1,   2,   3,   4,   5,   6,   7,   8,   9,  10,  11,  12,  13,  14,  15,  16
  17,  18,  19,  20,  21,  22,  23,  24,  49,  50,  51,  52,  53,  54,  55,  56
  57,  58,  59,  60,  61,  62,  63,  64,  65,  66,  67,  68,  69,  70,  71,  72
  97,  98,  99, 100, 101, 102, 103, 104, 105, 106, 107, 108, 109, 110, 111, 112
 113, 114, 115, 116, 117, 118, 119, 120, 121, 122, 123, 124, 125, 126, 127, 128
 129, 130, 131, 132
*Surface, type=ELEMENT, name=_Int-1_gcs0_162, internal
__Int-1_gcs0_162_S2, S2
*Elset, elset=__Int-1_gcs0_167_S1, internal, instance=tanpian_abaqus-1-1-rad-4, generate
 4625,  4640,     1
*Surface, type=ELEMENT, name=_Int-1_gcs0_167, internal
__Int-1_gcs0_167_S1, S1
*Elset, elset=__Int-1_gcs0_168_S2, internal, instance=tanpian_abaqus-1-1-rad-4, generate
 4801,  4816,     1
*Surface, type=ELEMENT, name=_Int-1_gcs0_168, internal
__Int-1_gcs0_168_S2, S2
*Elset, elset=__Int-1_gcs0_173_S6, internal, instance=tanpian_abaqus-6_1-1
 3365, 3367, 3369, 3385, 3387, 3389, 3405, 3407, 3409, 3425, 3427, 3429
*Surface, type=ELEMENT, name=_Int-1_gcs0_173, internal
__Int-1_gcs0_173_S6, S6
*Elset, elset=__Int-1_gcs0_174_S4, internal, instance=tanpian_abaqus-6_1-1
   2,   4,   6,   8,  10,  22,  24,  26,  28,  30,  42,  44,  46,  48,  50,  62
  64,  66,  68,  70,  82,  84,  86,  88,  90, 102, 104, 106, 108, 110, 122, 124
 126, 128, 130, 142, 144, 146, 148, 150, 162, 164, 166, 168, 170, 182, 184, 186
 188, 190, 202, 204, 206, 208, 210, 222, 224, 226, 228, 230, 242, 244, 246, 248
 250, 262, 264, 266, 268, 270, 282, 284, 286, 288, 290, 302, 304, 306, 308, 310
 322, 324, 326, 328, 330, 342, 344, 346, 348, 350, 362, 364, 366, 368, 370, 382
 384, 386, 388, 390, 402, 404, 406, 408, 410, 422, 424, 426, 428, 430, 442, 444
 446, 448, 450, 462, 464, 466, 468, 470, 482, 484, 486, 488, 490, 502, 504, 506
 508, 510, 522, 524, 526, 528, 530, 542, 544, 546, 548, 550, 562, 564, 566, 568
 570, 582, 584, 586, 588, 590, 602, 604, 606, 608, 610, 622, 624, 626, 628, 630
 642, 644, 646, 648, 650, 662, 664, 666, 668, 670, 682, 684, 686, 688, 690, 702
 704, 706, 708, 710, 722, 724, 726, 728, 730, 742, 744, 746, 748, 750, 762, 764
 766, 768, 770, 782, 784, 786, 788, 790, 802, 804, 806, 808, 810, 822, 824, 826
 828, 830, 842, 844, 846, 848, 850
*Elset, elset=__Int-1_gcs0_174_S6, internal, instance=tanpian_abaqus-6_1-1
  11,  13,  15,  17,  19,  31,  33,  35,  37,  39,  51,  53,  55,  57,  59,  71
  73,  75,  77,  79,  91,  93,  95,  97,  99, 111, 113, 115, 117, 119, 131, 133
 135, 137, 139, 151, 153, 155, 157, 159, 171, 173, 175, 177, 179, 191, 193, 195
 197, 199, 211, 213, 215, 217, 219, 231, 233, 235, 237, 239, 251, 253, 255, 257
 259, 271, 273, 275, 277, 279, 291, 293, 295, 297, 299, 311, 313, 315, 317, 319
 331, 333, 335, 337, 339, 351, 353, 355, 357, 359, 371, 373, 375, 377, 379, 391
 393, 395, 397, 399, 411, 413, 415, 417, 419, 431, 433, 435, 437, 439, 451, 453
 455, 457, 459, 471, 473, 475, 477, 479, 491, 493, 495, 497, 499, 511, 513, 515
 517, 519, 531, 533, 535, 537, 539, 551, 553, 555, 557, 559, 571, 573, 575, 577
 579, 591, 593, 595, 597, 599, 611, 613, 615, 617, 619, 631, 633, 635, 637, 639
 651, 653, 655, 657, 659, 671, 673, 675, 677, 679, 691, 693, 695, 697, 699, 711
 713, 715, 717, 719, 731, 733, 735, 737, 739, 751, 753, 755, 757, 759, 771, 773
 775, 777, 779, 791, 793, 795, 797, 799, 811, 813, 815, 817, 819, 831, 833, 835
 837, 839, 851, 853, 855, 857, 859
*Surface, type=ELEMENT, name=_Int-1_gcs0_174, internal
__Int-1_gcs0_174_S4, S4
__Int-1_gcs0_174_S6, S6
*Elset, elset=__Int-1_gcs0_178_S4, internal, instance=tanpian_abaqus-6_1-1
 1722, 1724, 1726, 1728, 1730, 1742, 1744, 1746, 1748, 1750, 1762, 1764, 1766, 1768, 1770, 1782
 1784, 1786, 1788, 1790, 1802, 1804, 1806, 1808, 1810, 1822, 1824, 1826, 1828, 1830, 1842, 1844
 1846, 1848, 1850, 1862, 1864, 1866, 1868, 1870, 1882, 1884, 1886, 1888, 1890, 1902, 1904, 1906
 1908, 1910, 1922, 1924, 1926, 1928, 1930, 1942, 1944, 1946, 1948, 1950, 1962, 1964, 1966, 1968
 1970, 1982, 1984, 1986, 1988, 1990, 2002, 2004, 2006, 2008, 2010, 2022, 2024, 2026, 2028, 2030
 2042, 2044, 2046, 2048, 2050, 2062, 2064, 2066, 2068, 2070, 2082, 2084, 2086, 2088, 2090, 2102
 2104, 2106, 2108, 2110, 2122, 2124, 2126, 2128, 2130, 2142, 2144, 2146, 2148, 2150, 2162, 2164
 2166, 2168, 2170, 2182, 2184, 2186, 2188, 2190, 2202, 2204, 2206, 2208, 2210, 2222, 2224, 2226
 2228, 2230, 2242, 2244, 2246, 2248, 2250, 2262, 2264, 2266, 2268, 2270, 2282, 2284, 2286, 2288
 2290, 2302, 2304, 2306, 2308, 2310, 2322, 2324, 2326, 2328, 2330, 2342, 2344, 2346, 2348, 2350
 2362, 2364, 2366, 2368, 2370, 2382, 2384, 2386, 2388, 2390, 2402, 2404, 2406, 2408, 2410, 2422
 2424, 2426, 2428, 2430, 2442, 2444, 2446, 2448, 2450, 2462, 2464, 2466, 2468, 2470, 2482, 2484
 2486, 2488, 2490, 2502, 2504, 2506, 2508, 2510, 2522, 2524, 2526, 2528, 2530, 2542, 2544, 2546
 2548, 2550, 2562, 2564, 2566, 2568, 2570
*Elset, elset=__Int-1_gcs0_178_S6, internal, instance=tanpian_abaqus-6_1-1
 1731, 1733, 1735, 1737, 1739, 1751, 1753, 1755, 1757, 1759, 1771, 1773, 1775, 1777, 1779, 1791
 1793, 1795, 1797, 1799, 1811, 1813, 1815, 1817, 1819, 1831, 1833, 1835, 1837, 1839, 1851, 1853
 1855, 1857, 1859, 1871, 1873, 1875, 1877, 1879, 1891, 1893, 1895, 1897, 1899, 1911, 1913, 1915
 1917, 1919, 1931, 1933, 1935, 1937, 1939, 1951, 1953, 1955, 1957, 1959, 1971, 1973, 1975, 1977
 1979, 1991, 1993, 1995, 1997, 1999, 2011, 2013, 2015, 2017, 2019, 2031, 2033, 2035, 2037, 2039
 2051, 2053, 2055, 2057, 2059, 2071, 2073, 2075, 2077, 2079, 2091, 2093, 2095, 2097, 2099, 2111
 2113, 2115, 2117, 2119, 2131, 2133, 2135, 2137, 2139, 2151, 2153, 2155, 2157, 2159, 2171, 2173
 2175, 2177, 2179, 2191, 2193, 2195, 2197, 2199, 2211, 2213, 2215, 2217, 2219, 2231, 2233, 2235
 2237, 2239, 2251, 2253, 2255, 2257, 2259, 2271, 2273, 2275, 2277, 2279, 2291, 2293, 2295, 2297
 2299, 2311, 2313, 2315, 2317, 2319, 2331, 2333, 2335, 2337, 2339, 2351, 2353, 2355, 2357, 2359
 2371, 2373, 2375, 2377, 2379, 2391, 2393, 2395, 2397, 2399, 2411, 2413, 2415, 2417, 2419, 2431
 2433, 2435, 2437, 2439, 2451, 2453, 2455, 2457, 2459, 2471, 2473, 2475, 2477, 2479, 2491, 2493
 2495, 2497, 2499, 2511, 2513, 2515, 2517, 2519, 2531, 2533, 2535, 2537, 2539, 2551, 2553, 2555
 2557, 2559, 2571, 2573, 2575, 2577, 2579
*Surface, type=ELEMENT, name=_Int-1_gcs0_178, internal
__Int-1_gcs0_178_S4, S4
__Int-1_gcs0_178_S6, S6
*Elset, elset=__Int-1_gcs0_179_S6, internal, instance=tanpian_abaqus-6_1-1
 1645, 1647, 1649, 1665, 1667, 1669, 1685, 1687, 1689, 1705, 1707, 1709
*Surface, type=ELEMENT, name=_Int-1_gcs0_179, internal
__Int-1_gcs0_179_S6, S6
*Elset, elset=__Int-1_gcs0_183_S6, internal, instance=tanpian_abaqus-6_1-1
 785, 787, 789, 805, 807, 809, 825, 827, 829, 845, 847, 849
*Surface, type=ELEMENT, name=_Int-1_gcs0_183, internal
__Int-1_gcs0_183_S6, S6
*Elset, elset=__Int-1_gcs0_185_S6, internal, instance=tanpian_abaqus-6_1-1
 2505, 2507, 2509, 2525, 2527, 2529, 2545, 2547, 2549, 2565, 2567, 2569
*Surface, type=ELEMENT, name=_Int-1_gcs0_185, internal
__Int-1_gcs0_185_S6, S6
*Elset, elset=__Int-1_gcs0_189_S4, internal, instance=tanpian_abaqus-6_1-1
 2582, 2584, 2586, 2588, 2590, 2602, 2604, 2606, 2608, 2610, 2622, 2624, 2626, 2628, 2630, 2642
 2644, 2646, 2648, 2650, 2662, 2664, 2666, 2668, 2670, 2682, 2684, 2686, 2688, 2690, 2702, 2704
 2706, 2708, 2710, 2722, 2724, 2726, 2728, 2730, 2742, 2744, 2746, 2748, 2750, 2762, 2764, 2766
 2768, 2770, 2782, 2784, 2786, 2788, 2790, 2802, 2804, 2806, 2808, 2810, 2822, 2824, 2826, 2828
 2830, 2842, 2844, 2846, 2848, 2850, 2862, 2864, 2866, 2868, 2870, 2882, 2884, 2886, 2888, 2890
 2902, 2904, 2906, 2908, 2910, 2922, 2924, 2926, 2928, 2930, 2942, 2944, 2946, 2948, 2950, 2962
 2964, 2966, 2968, 2970, 2982, 2984, 2986, 2988, 2990, 3002, 3004, 3006, 3008, 3010, 3022, 3024
 3026, 3028, 3030, 3042, 3044, 3046, 3048, 3050, 3062, 3064, 3066, 3068, 3070, 3082, 3084, 3086
 3088, 3090, 3102, 3104, 3106, 3108, 3110, 3122, 3124, 3126, 3128, 3130, 3142, 3144, 3146, 3148
 3150, 3162, 3164, 3166, 3168, 3170, 3182, 3184, 3186, 3188, 3190, 3202, 3204, 3206, 3208, 3210
 3222, 3224, 3226, 3228, 3230, 3242, 3244, 3246, 3248, 3250, 3262, 3264, 3266, 3268, 3270, 3282
 3284, 3286, 3288, 3290, 3302, 3304, 3306, 3308, 3310, 3322, 3324, 3326, 3328, 3330, 3342, 3344
 3346, 3348, 3350, 3362, 3364, 3366, 3368, 3370, 3382, 3384, 3386, 3388, 3390, 3402, 3404, 3406
 3408, 3410, 3422, 3424, 3426, 3428, 3430
*Elset, elset=__Int-1_gcs0_189_S6, internal, instance=tanpian_abaqus-6_1-1
 2591, 2593, 2595, 2597, 2599, 2611, 2613, 2615, 2617, 2619, 2631, 2633, 2635, 2637, 2639, 2651
 2653, 2655, 2657, 2659, 2671, 2673, 2675, 2677, 2679, 2691, 2693, 2695, 2697, 2699, 2711, 2713
 2715, 2717, 2719, 2731, 2733, 2735, 2737, 2739, 2751, 2753, 2755, 2757, 2759, 2771, 2773, 2775
 2777, 2779, 2791, 2793, 2795, 2797, 2799, 2811, 2813, 2815, 2817, 2819, 2831, 2833, 2835, 2837
 2839, 2851, 2853, 2855, 2857, 2859, 2871, 2873, 2875, 2877, 2879, 2891, 2893, 2895, 2897, 2899
 2911, 2913, 2915, 2917, 2919, 2931, 2933, 2935, 2937, 2939, 2951, 2953, 2955, 2957, 2959, 2971
 2973, 2975, 2977, 2979, 2991, 2993, 2995, 2997, 2999, 3011, 3013, 3015, 3017, 3019, 3031, 3033
 3035, 3037, 3039, 3051, 3053, 3055, 3057, 3059, 3071, 3073, 3075, 3077, 3079, 3091, 3093, 3095
 3097, 3099, 3111, 3113, 3115, 3117, 3119, 3131, 3133, 3135, 3137, 3139, 3151, 3153, 3155, 3157
 3159, 3171, 3173, 3175, 3177, 3179, 3191, 3193, 3195, 3197, 3199, 3211, 3213, 3215, 3217, 3219
 3231, 3233, 3235, 3237, 3239, 3251, 3253, 3255, 3257, 3259, 3271, 3273, 3275, 3277, 3279, 3291
 3293, 3295, 3297, 3299, 3311, 3313, 3315, 3317, 3319, 3331, 3333, 3335, 3337, 3339, 3351, 3353
 3355, 3357, 3359, 3371, 3373, 3375, 3377, 3379, 3391, 3393, 3395, 3397, 3399, 3411, 3413, 3415
 3417, 3419, 3431, 3433, 3435, 3437, 3439
*Surface, type=ELEMENT, name=_Int-1_gcs0_189, internal
__Int-1_gcs0_189_S4, S4
__Int-1_gcs0_189_S6, S6
*Elset, elset=__Int-1_gcs0_192_S6, internal, instance=tanpian_abaqus-6_1-1
   1,   3,  21,  23,  41,  43,  61,  63,  81,  83, 101, 103, 121, 123, 141, 143
 161, 163, 181, 183, 201, 203, 221, 223, 241, 243, 261, 263, 281, 283, 301, 303
 321, 323, 341, 343, 361, 363, 381, 383, 401, 403, 421, 423, 441, 443, 461, 463
 481, 483, 501, 503, 521, 523, 541, 543, 561, 563, 581, 583, 601, 603, 621, 623
 641, 643, 661, 663, 681, 683, 701, 703, 721, 723, 741, 743, 761, 763, 781, 783
 801, 803, 821, 823, 841, 843
*Elset, elset=__Int-1_gcs0_192_S4, internal, instance=tanpian_abaqus-6_1-1
  12,  14,  32,  34,  52,  54,  72,  74,  92,  94, 112, 114, 132, 134, 152, 154
 172, 174, 192, 194, 212, 214, 232, 234, 252, 254, 272, 274, 292, 294, 312, 314
 332, 334, 352, 354, 372, 374, 392, 394, 412, 414, 432, 434, 452, 454, 472, 474
 492, 494, 512, 514, 532, 534, 552, 554, 572, 574, 592, 594, 612, 614, 632, 634
 652, 654, 672, 674, 692, 694, 712, 714, 732, 734, 752, 754, 772, 774, 792, 794
 812, 814, 832, 834, 852, 854
*Surface, type=ELEMENT, name=_Int-1_gcs0_192, internal
__Int-1_gcs0_192_S6, S6
__Int-1_gcs0_192_S4, S4
*Elset, elset=__Int-1_gcs0_194_S6, internal, instance=tanpian_abaqus-6_1-1
 2581, 2583, 2601, 2603, 2621, 2623, 2641, 2643, 2661, 2663, 2681, 2683, 2701, 2703, 2721, 2723
 2741, 2743, 2761, 2763, 2781, 2783, 2801, 2803, 2821, 2823, 2841, 2843, 2861, 2863, 2881, 2883
 2901, 2903, 2921, 2923, 2941, 2943, 2961, 2963, 2981, 2983, 3001, 3003, 3021, 3023, 3041, 3043
 3061, 3063, 3081, 3083, 3101, 3103, 3121, 3123, 3141, 3143, 3161, 3163, 3181, 3183, 3201, 3203
 3221, 3223, 3241, 3243, 3261, 3263, 3281, 3283, 3301, 3303, 3321, 3323, 3341, 3343, 3361, 3363
 3381, 3383, 3401, 3403, 3421, 3423
*Elset, elset=__Int-1_gcs0_194_S4, internal, instance=tanpian_abaqus-6_1-1
 2592, 2594, 2612, 2614, 2632, 2634, 2652, 2654, 2672, 2674, 2692, 2694, 2712, 2714, 2732, 2734
 2752, 2754, 2772, 2774, 2792, 2794, 2812, 2814, 2832, 2834, 2852, 2854, 2872, 2874, 2892, 2894
 2912, 2914, 2932, 2934, 2952, 2954, 2972, 2974, 2992, 2994, 3012, 3014, 3032, 3034, 3052, 3054
 3072, 3074, 3092, 3094, 3112, 3114, 3132, 3134, 3152, 3154, 3172, 3174, 3192, 3194, 3212, 3214
 3232, 3234, 3252, 3254, 3272, 3274, 3292, 3294, 3312, 3314, 3332, 3334, 3352, 3354, 3372, 3374
 3392, 3394, 3412, 3414, 3432, 3434
*Surface, type=ELEMENT, name=_Int-1_gcs0_194, internal
__Int-1_gcs0_194_S6, S6
__Int-1_gcs0_194_S4, S4
*Elset, elset=__Int-1_gcs0_196_S6, internal, instance=tanpian_abaqus-6_1-1
 1721, 1723, 1741, 1743, 1761, 1763, 1781, 1783, 1801, 1803, 1821, 1823, 1841, 1843, 1861, 1863
 1881, 1883, 1901, 1903, 1921, 1923, 1941, 1943, 1961, 1963, 1981, 1983, 2001, 2003, 2021, 2023
 2041, 2043, 2061, 2063, 2081, 2083, 2101, 2103, 2121, 2123, 2141, 2143, 2161, 2163, 2181, 2183
 2201, 2203, 2221, 2223, 2241, 2243, 2261, 2263, 2281, 2283, 2301, 2303, 2321, 2323, 2341, 2343
 2361, 2363, 2381, 2383, 2401, 2403, 2421, 2423, 2441, 2443, 2461, 2463, 2481, 2483, 2501, 2503
 2521, 2523, 2541, 2543, 2561, 2563
*Elset, elset=__Int-1_gcs0_196_S4, internal, instance=tanpian_abaqus-6_1-1
 1732, 1734, 1752, 1754, 1772, 1774, 1792, 1794, 1812, 1814, 1832, 1834, 1852, 1854, 1872, 1874
 1892, 1894, 1912, 1914, 1932, 1934, 1952, 1954, 1972, 1974, 1992, 1994, 2012, 2014, 2032, 2034
 2052, 2054, 2072, 2074, 2092, 2094, 2112, 2114, 2132, 2134, 2152, 2154, 2172, 2174, 2192, 2194
 2212, 2214, 2232, 2234, 2252, 2254, 2272, 2274, 2292, 2294, 2312, 2314, 2332, 2334, 2352, 2354
 2372, 2374, 2392, 2394, 2412, 2414, 2432, 2434, 2452, 2454, 2472, 2474, 2492, 2494, 2512, 2514
 2532, 2534, 2552, 2554, 2572, 2574
*Surface, type=ELEMENT, name=_Int-1_gcs0_196, internal
__Int-1_gcs0_196_S6, S6
__Int-1_gcs0_196_S4, S4
*Elset, elset=__Int-1_gcs0_198_S6, internal, instance=tanpian_abaqus-6_1-1
  861,  863,  881,  883,  901,  903,  921,  923,  941,  943,  961,  963,  981,  983, 1001, 1003
 1021, 1023, 1041, 1043, 1061, 1063, 1081, 1083, 1101, 1103, 1121, 1123, 1141, 1143, 1161, 1163
 1181, 1183, 1201, 1203, 1221, 1223, 1241, 1243, 1261, 1263, 1281, 1283, 1301, 1303, 1321, 1323
 1341, 1343, 1361, 1363, 1381, 1383, 1401, 1403, 1421, 1423, 1441, 1443, 1461, 1463, 1481, 1483
 1501, 1503, 1521, 1523, 1541, 1543, 1561, 1563, 1581, 1583, 1601, 1603, 1621, 1623, 1641, 1643
 1661, 1663, 1681, 1683, 1701, 1703
*Elset, elset=__Int-1_gcs0_198_S4, internal, instance=tanpian_abaqus-6_1-1
  872,  874,  892,  894,  912,  914,  932,  934,  952,  954,  972,  974,  992,  994, 1012, 1014
 1032, 1034, 1052, 1054, 1072, 1074, 1092, 1094, 1112, 1114, 1132, 1134, 1152, 1154, 1172, 1174
 1192, 1194, 1212, 1214, 1232, 1234, 1252, 1254, 1272, 1274, 1292, 1294, 1312, 1314, 1332, 1334
 1352, 1354, 1372, 1374, 1392, 1394, 1412, 1414, 1432, 1434, 1452, 1454, 1472, 1474, 1492, 1494
 1512, 1514, 1532, 1534, 1552, 1554, 1572, 1574, 1592, 1594, 1612, 1614, 1632, 1634, 1652, 1654
 1672, 1674, 1692, 1694, 1712, 1714
*Surface, type=ELEMENT, name=_Int-1_gcs0_198, internal
__Int-1_gcs0_198_S6, S6
__Int-1_gcs0_198_S4, S4
*Elset, elset=__Int-1_gcs0_200_S4, internal, instance=tanpian_abaqus-6_1-1
  862,  864,  866,  868,  870,  882,  884,  886,  888,  890,  902,  904,  906,  908,  910,  922
  924,  926,  928,  930,  942,  944,  946,  948,  950,  962,  964,  966,  968,  970,  982,  984
  986,  988,  990, 1002, 1004, 1006, 1008, 1010, 1022, 1024, 1026, 1028, 1030, 1042, 1044, 1046
 1048, 1050, 1062, 1064, 1066, 1068, 1070, 1082, 1084, 1086, 1088, 1090, 1102, 1104, 1106, 1108
 1110, 1122, 1124, 1126, 1128, 1130, 1142, 1144, 1146, 1148, 1150, 1162, 1164, 1166, 1168, 1170
 1182, 1184, 1186, 1188, 1190, 1202, 1204, 1206, 1208, 1210, 1222, 1224, 1226, 1228, 1230, 1242
 1244, 1246, 1248, 1250, 1262, 1264, 1266, 1268, 1270, 1282, 1284, 1286, 1288, 1290, 1302, 1304
 1306, 1308, 1310, 1322, 1324, 1326, 1328, 1330, 1342, 1344, 1346, 1348, 1350, 1362, 1364, 1366
 1368, 1370, 1382, 1384, 1386, 1388, 1390, 1402, 1404, 1406, 1408, 1410, 1422, 1424, 1426, 1428
 1430, 1442, 1444, 1446, 1448, 1450, 1462, 1464, 1466, 1468, 1470, 1482, 1484, 1486, 1488, 1490
 1502, 1504, 1506, 1508, 1510, 1522, 1524, 1526, 1528, 1530, 1542, 1544, 1546, 1548, 1550, 1562
 1564, 1566, 1568, 1570, 1582, 1584, 1586, 1588, 1590, 1602, 1604, 1606, 1608, 1610, 1622, 1624
 1626, 1628, 1630, 1642, 1644, 1646, 1648, 1650, 1662, 1664, 1666, 1668, 1670, 1682, 1684, 1686
 1688, 1690, 1702, 1704, 1706, 1708, 1710
*Elset, elset=__Int-1_gcs0_200_S6, internal, instance=tanpian_abaqus-6_1-1
  871,  873,  875,  877,  879,  891,  893,  895,  897,  899,  911,  913,  915,  917,  919,  931
  933,  935,  937,  939,  951,  953,  955,  957,  959,  971,  973,  975,  977,  979,  991,  993
  995,  997,  999, 1011, 1013, 1015, 1017, 1019, 1031, 1033, 1035, 1037, 1039, 1051, 1053, 1055
 1057, 1059, 1071, 1073, 1075, 1077, 1079, 1091, 1093, 1095, 1097, 1099, 1111, 1113, 1115, 1117
 1119, 1131, 1133, 1135, 1137, 1139, 1151, 1153, 1155, 1157, 1159, 1171, 1173, 1175, 1177, 1179
 1191, 1193, 1195, 1197, 1199, 1211, 1213, 1215, 1217, 1219, 1231, 1233, 1235, 1237, 1239, 1251
 1253, 1255, 1257, 1259, 1271, 1273, 1275, 1277, 1279, 1291, 1293, 1295, 1297, 1299, 1311, 1313
 1315, 1317, 1319, 1331, 1333, 1335, 1337, 1339, 1351, 1353, 1355, 1357, 1359, 1371, 1373, 1375
 1377, 1379, 1391, 1393, 1395, 1397, 1399, 1411, 1413, 1415, 1417, 1419, 1431, 1433, 1435, 1437
 1439, 1451, 1453, 1455, 1457, 1459, 1471, 1473, 1475, 1477, 1479, 1491, 1493, 1495, 1497, 1499
 1511, 1513, 1515, 1517, 1519, 1531, 1533, 1535, 1537, 1539, 1551, 1553, 1555, 1557, 1559, 1571
 1573, 1575, 1577, 1579, 1591, 1593, 1595, 1597, 1599, 1611, 1613, 1615, 1617, 1619, 1631, 1633
 1635, 1637, 1639, 1651, 1653, 1655, 1657, 1659, 1671, 1673, 1675, 1677, 1679, 1691, 1693, 1695
 1697, 1699, 1711, 1713, 1715, 1717, 1719
*Surface, type=ELEMENT, name=_Int-1_gcs0_200, internal
__Int-1_gcs0_200_S4, S4
__Int-1_gcs0_200_S6, S6
*Elset, elset=__Int-1_gcs0_201_S4, internal, instance=tanpian_abaqus-6_1-1
 2516, 2518, 2520, 2536, 2538, 2540, 2556, 2558, 2560, 2576, 2578, 2580
*Surface, type=ELEMENT, name=_Int-1_gcs0_201, internal
__Int-1_gcs0_201_S4, S4
*Elset, elset=__Int-1_gcs0_202_S4, internal, instance=tanpian_abaqus-6_1-1
 1656, 1658, 1660, 1676, 1678, 1680, 1696, 1698, 1700, 1716, 1718, 1720
*Surface, type=ELEMENT, name=_Int-1_gcs0_202, internal
__Int-1_gcs0_202_S4, S4
*Elset, elset=__Int-1_gcs0_203_S4, internal, instance=tanpian_abaqus-6_1-1
 3376, 3378, 3380, 3396, 3398, 3400, 3416, 3418, 3420, 3436, 3438, 3440
*Surface, type=ELEMENT, name=_Int-1_gcs0_203, internal
__Int-1_gcs0_203_S4, S4
*Elset, elset=__Int-1_gcs0_204_S4, internal, instance=tanpian_abaqus-6_1-1
 796, 798, 800, 816, 818, 820, 836, 838, 840, 856, 858, 860
*Surface, type=ELEMENT, name=_Int-1_gcs0_204, internal
__Int-1_gcs0_204_S4, S4
*End Assembly
** 
** ELEMENT CONTROLS
** 
*Section Controls, name=EC-1, hourglass=ENHANCED, VISCOSITY=0.01
1., 1., 1.
*Section Controls, name=EC-2, VISCOSITY=0.01
1., 1., 1.
*Amplitude, name=Amp-1, definition=SMOOTH STEP
             0.,              0.,              1.,              1.
** 
** MATERIALS
** 
*Material, name=steel_elas-plastic
*Density
 7.8e-09,
*Elastic
210000., 0.28
*Plastic
380.,   0.
420., 0.04
470., 0.12
500., 0.19
522., 0.25
** 
** INTERACTION PROPERTIES
** 
*Surface Interaction, name=IntProp-1
1.,
*Friction, slip tolerance=0.005
 0.1,
*Surface Behavior, pressure-overclosure=LINEAR
120000., 
*Surface Interaction, name=IntProp-2
1.,
** 
** BOUNDARY CONDITIONS
** 
** Name: BC-2 Type: /
*Boundary
tanpian_abaqus-7-1.Set-TW-RP, 1, 1
tanpian_abaqus-7-1.Set-TW-RP, 2, 2
tanpian_abaqus-7-1.Set-TW-RP, 3, 3
tanpian_abaqus-7-1.Set-TW-RP, 4, 4
tanpian_abaqus-7-1.Set-TW-RP, 5, 5
tanpian_abaqus-7-1.Set-TW-RP, 6, 6
** Name: BC-3 Type: /
*Boundary
tanpian_abaqus-6_1-1.Set-TN-RP, 1, 1
tanpian_abaqus-6_1-1.Set-TN-RP, 2, 2
tanpian_abaqus-6_1-1.Set-TN-RP, 3, 3
tanpian_abaqus-6_1-1.Set-TN-RP, 4, 4
tanpian_abaqus-6_1-1.Set-TN-RP, 5, 5
tanpian_abaqus-6_1-1.Set-TN-RP, 6, 6
** Name: BC-4 Type: /
*Boundary
Set-BAN-RP, 1, 1
Set-BAN-RP, 3, 3
Set-BAN-RP, 4, 4
Set-BAN-RP, 5, 5
Set-BAN-RP, 6, 6
** 
** INTERACTIONS
** 
** Interaction: Int-1
*Contact
*Contact Inclusions, ALL EXTERIOR
*Contact Property Assignment
 ,  , IntProp-1
*Surface Property Assignment, property=GEOMETRIC CORRECTION
_Int-1_gcs0_2, Circumferential, -2.07494, 28.0078, -6.6479,  -2.6957, 28.0078, -7.4319
_Int-1_gcs0_3, Circumferential, -2.07494, 28.0078, -6.6479,  -2.6957, 28.0078, -7.4319
_Int-1_gcs0_13, Circumferential, -2.07494, 28.0078, -6.6479,  -2.6957, 28.0078, -7.4319
_Int-1_gcs0_14, Circumferential, -2.07494, 28.0078, -6.6479,  -2.6957, 28.0078, -7.4319
_Int-1_gcs0_15, Circumferential, -9.8, 100.008, 7.75951,  -9.016, 100.008, 7.13875
_Int-1_gcs0_16, Circumferential, -9.8, 105.008, 7.75951,  -9.016, 105.008, 7.13875
_Int-1_gcs0_24, Circumferential, -9.8, 105.008, 7.75951,  -9.016, 105.008, 7.13875
_Int-1_gcs0_25, Circumferential, -9.8, 100.008, 7.75951,  -9.016, 100.008, 7.13875
_Int-1_gcs0_26, Circumferential, -2.07494, 28.0078, -6.6479,  -2.6957, 28.0078, -7.4319
_Int-1_gcs0_27, Circumferential, -2.07494, 28.0078, -6.6479,  -2.6957, 28.0078, -7.4319
_Int-1_gcs0_32, Circumferential, -0.212662, 27.3441, -4.2959,  0.571338, 27.3441, -4.91666
_Int-1_gcs0_33, Circumferential, -7.62734, 27.3441, 10.5035,  -8.41134, 27.3441, 11.1243
_Int-1_gcs0_44, Circumferential, -1.47076e-14, 96.2194, 8.20683e-15,  -1.47076e-14, 95.2194, 8.20683e-15
_Int-1_gcs0_47, Circumferential, -1.47076e-14, 96.2194, 8.20683e-15,  -1.47076e-14, 95.2194, 8.20683e-15
_Int-1_gcs0_49, Circumferential, -1.47076e-14, 96.2194, 8.20683e-15,  -1.47076e-14, 95.2194, 8.20683e-15
_Int-1_gcs0_50, Circumferential, -1.47076e-14, 96.2194, 8.20683e-15,  -1.47076e-14, 95.2194, 8.20683e-15
_Int-1_gcs0_54, Spherical, -6.42485e-15, 20.4929, 5.63243e-15
_Int-1_gcs0_55, Spherical, -6.42485e-15, 20.4929, 5.63243e-15
_Int-1_gcs0_56, Spherical, -6.42485e-15, 20.4929, 5.63243e-15
_Int-1_gcs0_59, Spherical, -6.42485e-15, 20.4929, 5.63243e-15
_Int-1_gcs0_60, Circumferential, -1.47076e-14, 96.2194, 8.20683e-15,  -1.47076e-14, 95.2194, 8.20683e-15
_Int-1_gcs0_61, Spherical, -6.42485e-15, 20.4929, 5.63243e-15
_Int-1_gcs0_62, Spherical, -6.42485e-15, 20.4929, 5.63243e-15
_Int-1_gcs0_63, Circumferential, -1.47076e-14, 96.2194, 8.20683e-15,  -1.47076e-14, 95.2194, 8.20683e-15
_Int-1_gcs0_64, Circumferential, -1.47076e-14, 96.2194, 8.20683e-15,  -1.47076e-14, 95.2194, 8.20683e-15
_Int-1_gcs0_65, Spherical, -6.42485e-15, 20.4929, 5.63243e-15
_Int-1_gcs0_67, Spherical, -6.42485e-15, 20.4929, 5.63243e-15
_Int-1_gcs0_68, Circumferential, -1.47076e-14, 96.2194, 8.20683e-15,  -1.47076e-14, 95.2194, 8.20683e-15
_Int-1_gcs0_71, Circumferential, -6.6479, 28.0078, 2.07494,  -7.4319, 28.0078, 2.6957
_Int-1_gcs0_72, Circumferential, -6.6479, 28.0078, 2.07494,  -7.4319, 28.0078, 2.6957
_Int-1_gcs0_82, Circumferential, -6.6479, 28.0078, 2.07494,  -7.4319, 28.0078, 2.6957
_Int-1_gcs0_83, Circumferential, -6.6479, 28.0078, 2.07494,  -7.4319, 28.0078, 2.6957
_Int-1_gcs0_84, Circumferential, 7.75951, 100.008, 9.8,  7.13875, 100.008, 9.016
_Int-1_gcs0_85, Circumferential, 7.75951, 105.008, 9.8,  7.13875, 105.008, 9.016
_Int-1_gcs0_93, Circumferential, 7.75951, 105.008, 9.8,  7.13875, 105.008, 9.016
_Int-1_gcs0_94, Circumferential, 7.75951, 100.008, 9.8,  7.13875, 100.008, 9.016
_Int-1_gcs0_95, Circumferential, -6.6479, 28.0078, 2.07494,  -7.4319, 28.0078, 2.6957
_Int-1_gcs0_96, Circumferential, -6.6479, 28.0078, 2.07494,  -7.4319, 28.0078, 2.6957
_Int-1_gcs0_101, Circumferential, -4.2959, 27.3441, 0.212662,  -4.91666, 27.3441, -0.571338
_Int-1_gcs0_102, Circumferential, 10.5035, 27.3441, 7.62734,  11.1243, 27.3441, 8.41134
_Int-1_gcs0_104, Circumferential, 2.07494, 28.0078, 6.6479,  2.6957, 28.0078, 7.4319
_Int-1_gcs0_105, Circumferential, 2.07494, 28.0078, 6.6479,  2.6957, 28.0078, 7.4319
_Int-1_gcs0_115, Circumferential, 2.07494, 28.0078, 6.6479,  2.6957, 28.0078, 7.4319
_Int-1_gcs0_116, Circumferential, 2.07494, 28.0078, 6.6479,  2.6957, 28.0078, 7.4319
_Int-1_gcs0_117, Circumferential, 9.8, 100.008, -7.75951,  9.016, 100.008, -7.13875
_Int-1_gcs0_118, Circumferential, 9.8, 105.008, -7.75951,  9.016, 105.008, -7.13875
_Int-1_gcs0_126, Circumferential, 9.8, 105.008, -7.75951,  9.016, 105.008, -7.13875
** ... 33 like lines cut
** Interaction: Int-2
*Contact Pair, interaction=IntProp-1, type=SURFACE TO SURFACE
s_Surf-1, m_Surf-1
** ----------------------------------------------------------------
** 
** STEP: Step-1
** 
*Step, name=Step-1, nlgeom=YES, inc=10000
*Static, stabilize=0.0002, allsdtol=0.05, continue=NO
0.1, 1., 1e-15, 0.1
** 
** BOUNDARY CONDITIONS
** 
** Name: BC-2 Type: /
*Boundary, op=NEW
tanpian_abaqus-7-1.Set-TW-RP, 1, 1
tanpian_abaqus-7-1.Set-TW-RP, 2, 2
tanpian_abaqus-7-1.Set-TW-RP, 3, 3
tanpian_abaqus-7-1.Set-TW-RP, 4, 4
tanpian_abaqus-7-1.Set-TW-RP, 5, 5
tanpian_abaqus-7-1.Set-TW-RP, 6, 6
** Name: BC-3 Type: /
*Boundary, op=NEW
tanpian_abaqus-6_1-1.Set-TN-RP, 1, 1
tanpian_abaqus-6_1-1.Set-TN-RP, 2, 2
tanpian_abaqus-6_1-1.Set-TN-RP, 3, 3
tanpian_abaqus-6_1-1.Set-TN-RP, 4, 4
tanpian_abaqus-6_1-1.Set-TN-RP, 5, 5
tanpian_abaqus-6_1-1.Set-TN-RP, 6, 6
** Name: BC-4 Type: /
*Boundary, op=NEW
Set-BAN-RP, 1, 1
Set-BAN-RP, 2, 2, 12.
Set-BAN-RP, 3, 3
Set-BAN-RP, 4, 4
Set-BAN-RP, 5, 5
Set-BAN-RP, 6, 6
** 
** INTERACTIONS
** 
** Interaction: Int-2
*Model Change, type=CONTACT PAIR, remove
s_Surf-1, m_Surf-1
** 
** CONTROLS
** 
*Controls, reset
*Controls, parameters=time incrementation
, , , , , , , 20, , , 
*Controls, parameters=field, field=displacement
0.01, , , , , , , 
*Controls, parameters=field, field=hydrostatic fluid pressure
0.01, , , , , , , 
*Controls, parameters=field, field=rotation
0.01, , , , , , , 
*Controls, parameters=field, field=electrical potential
0.01, , , , , , , 
** 
** OUTPUT REQUESTS
** 
*Restart, write, frequency=0
** 
** FIELD OUTPUT: F-Output-1
** 
*Output, field, variable=PRESELECT, number interval=10
** 
** HISTORY OUTPUT: H-Output-1
** 
*Output, history, variable=PRESELECT
*End Step
** ----------------------------------------------------------------
** 
** STEP: Step-2
** 
*Step, name=Step-2, nlgeom=YES, inc=10000
*Static, stabilize=0.0002, allsdtol=0.05, continue=NO
0.1, 1., 1e-15, 0.1
** 
** BOUNDARY CONDITIONS
** 
** Name: BC-4 Type: /
*Boundary
Set-BAN-RP, 2, 2
** 
** OUTPUT REQUESTS
** 
*Restart, write, frequency=0
** 
** FIELD OUTPUT: F-Output-1
** 
*Output, field, variable=PRESELECT, number interval=10
** 
** HISTORY OUTPUT: H-Output-1
** 
*Output, history, variable=PRESELECT
*End Step
** ----------------------------------------------------------------
** 
** STEP: Step-3
** 
*Step, name=Step-3, nlgeom=YES, extrapolation=NO, inc=10000, unsymm=YES
*Static, stabilize=0.0002, allsdtol=0.05, continue=NO
0.1, 1., 1e-15, 0.1
** 
** BOUNDARY CONDITIONS
** 
** Name: BC-4 Type: /
*Boundary
Set-BAN-RP, 2, 2, -13.6
** 
** INTERACTIONS
** 
** Interaction: Int-2
*Model Change, type=CONTACT PAIR, add
s_Surf-1, m_Surf-1
** Contact Controls for Interaction: Int-2
*Contact Controls, main=m_Surf-1, secondary=s_Surf-1, stabilize=0.1
** 
** OUTPUT REQUESTS
** 
*Restart, write, frequency=0
** 
** FIELD OUTPUT: F-Output-1
** 
*Output, field, variable=PRESELECT, number interval=10
** 
** HISTORY OUTPUT: H-Output-1
** 
*Output, history, variable=PRESELECT
*End Step
** ----------------------------------------------------------------
** 
** STEP: Step-4
** 
*Step, name=Step-4, nlgeom=YES, inc=10000
*Static, stabilize=0.0002, allsdtol=0.05, continue=NO
0.1, 1., 1e-15, 0.1
** 
** BOUNDARY CONDITIONS
** 
** Name: BC-4 Type: /
*Boundary
Set-BAN-RP, 2, 2, 12.
** 
** OUTPUT REQUESTS
** 
*Restart, write, frequency=0
** 
** FIELD OUTPUT: F-Output-1
** 
*Output, field, variable=PRESELECT, number interval=10
** 
** HISTORY OUTPUT: H-Output-1
** 
*Output, history, variable=PRESELECT
*End Step
