*Heading
** Large cantilever solid bending with 2000 elements
*Node
1, 0.000000, 0.000000, 0.000000
2, 1.000000, 0.000000, 0.000000
3, 2.000000, 0.000000, 0.000000
4, 3.000000, 0.000000, 0.000000
5, 4.000000, 0.000000, 0.000000
6, 5.000000, 0.000000, 0.000000
7, 6.000000, 0.000000, 0.000000
8, 7.000000, 0.000000, 0.000000
9, 8.000000, 0.000000, 0.000000
10, 9.000000, 0.000000, 0.000000
11, 10.000000, 0.000000, 0.000000
12, 11.000000, 0.000000, 0.000000
13, 12.000000, 0.000000, 0.000000
14, 13.000000, 0.000000, 0.000000
15, 14.000000, 0.000000, 0.000000
16, 15.000000, 0.000000, 0.000000
17, 16.000000, 0.000000, 0.000000
18, 17.000000, 0.000000, 0.000000
19, 18.000000, 0.000000, 0.000000
20, 19.000000, 0.000000, 0.000000
** ... 2626 like lines cut
*Nset, nset=FIX
1,22,43,64,85,106,127,148,169,190,211,232,253,274,295,316,337,358,379,400,421,442,463,484,505,526,547,568,589,610,631,652,673,694,715,736,757,778,799,820,841,862,883,904,925,946,967,988,1009,1030,1051,1072,1093,1114,1135,1156,1177,1198,1219,1240,1261,1282,1303,1324,1345,1366,1387,1408,1429,1450,1471,1492,1513,1534,1555,1576,1597,1618,1639,1660,1681,1702,1723,1744,1765,1786,1807,1828,1849,1870,1891
*Nset, nset=LOADTIP
2226,2247,2268,2289,2310,2331,2352,2373,2394,2415,2436,2457,2478,2499,2520,2541,2562,2583,2604,2625,2646
*Material, name=STEEL
*Elastic
2.1e11,0.3
*Density
7850
*Element, type=C3D8, elset=EALL
1,1,2,23,22,442,443,464,463
2,2,3,24,23,443,444,465,464
3,3,4,25,24,444,445,466,465
4,4,5,26,25,445,446,467,466
5,5,6,27,26,446,447,468,467
6,6,7,28,27,447,448,469,468
7,7,8,29,28,448,449,470,469
8,8,9,30,29,449,450,471,470
9,9,10,31,30,450,451,472,471
10,10,11,32,31,451,452,473,472
11,11,12,33,32,452,453,474,473
12,12,13,34,33,453,454,475,474
13,13,14,35,34,454,455,476,475
14,14,15,36,35,455,456,477,476
15,15,16,37,36,456,457,478,477
16,16,17,38,37,457,458,479,478
17,17,18,39,38,458,459,480,479
18,18,19,40,39,459,460,481,480
19,19,20,41,40,460,461,482,481
20,20,21,42,41,461,462,483,482
** ... 1980 like lines cut
*Boundary
FIX,1,6,0.0
*Cload
LOADTIP,3,-5.0e3
*Step, name=CANTILEVER2000
*Static
1.0
*End Step
