*Heading
** 经典算例：悬臂梁端部竖向载荷（线性）
*Node
1, 0,0,0
2, 1,0,0
*Material, name=STEEL
*Elastic
2.1e11, 0.3
*Element, type=B31, elset=BEAM
1,1,2
*Beam Section, elset=BEAM, material=STEEL
8.0e-5
*Boundary
1,1,6,0.0
*Cload
2,3,-5.0e4
*Step, name=BEAM_LINEAR
*Static
1.0
*End Step
