*Heading
** Nonlinear contact with field output frequency
*Heading
** two-block contact case with 144 C3D8 elements
*Node
1, 0.000000, 0.000000, 0.000000
2, 1.000000, 0.000000, 0.000000
3, 2.000000, 0.000000, 0.000000
4, 3.000000, 0.000000, 0.000000
5, 4.000000, 0.000000, 0.000000
6, 5.000000, 0.000000, 0.000000
7, 6.000000, 0.000000, 0.000000
8, 0.000000, 1.000000, 0.000000
9, 1.000000, 1.000000, 0.000000
10, 2.000000, 1.000000, 0.000000
11, 3.000000, 1.000000, 0.000000
12, 4.000000, 1.000000, 0.000000
13, 5.000000, 1.000000, 0.000000
14, 6.000000, 1.000000, 0.000000
15, 0.000000, 2.000000, 0.000000
16, 1.000000, 2.000000, 0.000000
17, 2.000000, 2.000000, 0.000000
18, 3.000000, 2.000000, 0.000000
19, 4.000000, 2.000000, 0.000000
20, 5.000000, 2.000000, 0.000000
** ... 274 like lines cut
*Nset, nset=FIXLOW
1,2,3,4,5,6,7,8,9,10,11,12,13,14,15,16,17,18,19,20,21,22,23,24,25,26,27,28,29,30,31,32,33,34,35,36,37,38,39,40,41,42,43,44,45,46,47,48,49
*Nset, nset=MASTER_SURF
99,100,101,102,103,104,105,106,107,108,109,110,111,112,113,114,115,116,117,118,119,120,121,122,123,124,125,126,127,128,129,130,131,132,133,134,135,136,137,138,139,140,141,142,143,144,145,146,147
*Nset, nset=SLAVE_SURF
148,149,150,151,152,153,154,155,156,157,158,159,160,161,162,163,164,165,166,167,168,169,170,171,172,173,174,175,176,177,178,179,180,181,182,183,184,185,186,187,188,189,190,191,192,193,194,195,196
*Nset, nset=TOPUP
246,247,248,249,250,251,252,253,254,255,256,257,258,259,260,261,262,263,264,265,266,267,268,269,270,271,272,273,274,275,276,277,278,279,280,281,282,283,284,285,286,287,288,289,290,291,292,293,294
*Material, name=MAT
*Elastic
2.0e11, 0.3
*Element, type=C3D8, elset=LOWER
1,1,2,9,8,50,51,58,57
2,2,3,10,9,51,52,59,58
3,3,4,11,10,52,53,60,59
4,4,5,12,11,53,54,61,60
5,5,6,13,12,54,55,62,61
6,6,7,14,13,55,56,63,62
7,8,9,16,15,57,58,65,64
8,9,10,17,16,58,59,66,65
9,10,11,18,17,59,60,67,66
10,11,12,19,18,60,61,68,67
11,12,13,20,19,61,62,69,68
12,13,14,21,20,62,63,70,69
13,15,16,23,22,64,65,72,71
14,16,17,24,23,65,66,73,72
15,17,18,25,24,66,67,74,73
16,18,19,26,25,67,68,75,74
17,19,20,27,26,68,69,76,75
18,20,21,28,27,69,70,77,76
19,22,23,30,29,71,72,79,78
20,23,24,31,30,72,73,80,79
** ... 52 like lines cut
*Element, type=C3D8, elset=UPPER
73,148,149,156,155,197,198,205,204
74,149,150,157,156,198,199,206,205
75,150,151,158,157,199,200,207,206
76,151,152,159,158,200,201,208,207
77,152,153,160,159,201,202,209,208
78,153,154,161,160,202,203,210,209
79,155,156,163,162,204,205,212,211
80,156,157,164,163,205,206,213,212
81,157,158,165,164,206,207,214,213
82,158,159,166,165,207,208,215,214
83,159,160,167,166,208,209,216,215
84,160,161,168,167,209,210,217,216
85,162,163,170,169,211,212,219,218
86,163,164,171,170,212,213,220,219
87,164,165,172,171,213,214,221,220
88,165,166,173,172,214,215,222,221
89,166,167,174,173,215,216,223,222
90,167,168,175,174,216,217,224,223
91,169,170,177,176,218,219,226,225
92,170,171,178,177,219,220,227,226
** ... 52 like lines cut
*Boundary
FIXLOW,1,6,0.0
*Contact Pair, master=MASTER_SURF, slave=SLAVE_SURF, penalty=2.0e8, friction=0.2
*Cload
TOPUP,3,-8.0e3
*Step, name=CONTACT_NL, nlgeom=YES
*Static
0.1
*Controls
40,1e-6,10,1.2,0.5,1e-5,5e-2
*Output, field, frequency=2
*Field Output, frequency=2
U, RF, S, E
*End Step
