*Heading
** Single bar with large displacement (geometric nonlinearity)
*Node
1, 0.0, 0.0, 0.0
2, 1.0, 0.0, 0.0
*Material, name=STEEL
*Elastic
2.0e11
*Element, type=T3D2, elset=EALL
1, 1, 2
*Truss Section, elset=EALL, material=STEEL
1.0e-4
*Boundary
1, 1, 3, 0.0
2, 2, 3, 0.0
*Cload
2, 1, 5.0e7
*Step, name=NLStep, nlgeom=YES
*Static
0.1, 1.0
*Controls
40, 1e-6
*End Step
