*Heading
** 3D solid block with 200 C3D8 elements
*Node
1, 0.000000, 0.000000, 0.000000
2, 1.000000, 0.000000, 0.000000
3, 2.000000, 0.000000, 0.000000
4, 3.000000, 0.000000, 0.000000
5, 4.000000, 0.000000, 0.000000
6, 5.000000, 0.000000, 0.000000
7, 6.000000, 0.000000, 0.000000
8, 7.000000, 0.000000, 0.000000
9, 8.000000, 0.000000, 0.000000
10, 9.000000, 0.000000, 0.000000
11, 10.000000, 0.000000, 0.000000
12, 0.000000, 1.000000, 0.000000
13, 1.000000, 1.000000, 0.000000
14, 2.000000, 1.000000, 0.000000
15, 3.000000, 1.000000, 0.000000
16, 4.000000, 1.000000, 0.000000
17, 5.000000, 1.000000, 0.000000
18, 6.000000, 1.000000, 0.000000
19, 7.000000, 1.000000, 0.000000
20, 8.000000, 1.000000, 0.000000
** ... 343 like lines cut
*Nset, nset=BOTTOM
1,2,3,4,5,6,7,8,9,10,11,12,13,14,15,16,17,18,19,20,21,22,23,24,25,26,27,28,29,30,31,32,33,34,35,36,37,38,39,40,41,42,43,44,45,46,47,48,49,50,51,52,53,54,55,56,57,58,59,60,61,62,63,64,65,66,67,68,69,70,71,72,73,74,75,76,77,78,79,80,81,82,83,84,85,86,87,88,89,90,91,92,93,94,95,96,97,98,99,100,101,102,103,104,105,106,107,108,109,110,111,112,113,114,115,116,117,118,119,120,121
*Nset, nset=TOP
243,244,245,246,247,248,249,250,251,252,253,254,255,256,257,258,259,260,261,262,263,264,265,266,267,268,269,270,271,272,273,274,275,276,277,278,279,280,281,282,283,284,285,286,287,288,289,290,291,292,293,294,295,296,297,298,299,300,301,302,303,304,305,306,307,308,309,310,311,312,313,314,315,316,317,318,319,320,321,322,323,324,325,326,327,328,329,330,331,332,333,334,335,336,337,338,339,340,341,342,
*Material, name=STEEL
*Elastic
2.1e11, 0.3
*Element, type=C3D8, elset=EBLK
1,1,2,13,12,122,123,134,133
2,2,3,14,13,123,124,135,134
3,3,4,15,14,124,125,136,135
4,4,5,16,15,125,126,137,136
5,5,6,17,16,126,127,138,137
6,6,7,18,17,127,128,139,138
7,7,8,19,18,128,129,140,139
8,8,9,20,19,129,130,141,140
9,9,10,21,20,130,131,142,141
10,10,11,22,21,131,132,143,142
11,12,13,24,23,133,134,145,144
12,13,14,25,24,134,135,146,145
13,14,15,26,25,135,136,147,146
14,15,16,27,26,136,137,148,147
15,16,17,28,27,137,138,149,148
16,17,18,29,28,138,139,150,149
17,18,19,30,29,139,140,151,150
18,19,20,31,30,140,141,152,151
19,20,21,32,31,141,142,153,152
20,21,22,33,32,142,143,154,153
** ... 180 like lines cut
*Boundary
BOTTOM,1,6,0.0
*Cload
TOP,3,-2.0e4
*Step, name=SOLID200
*Static
1.0
*End Step
